(base) hujian@W780-G20:~/Project/gpu-rodinia-3.1/cuda/backprop$ cd ~/Project/gpu-rodinia-3.1/cuda/backprop
cp ~/Project/gpgpu-sim_distribution/gpgpusim.config .
cp ~/Project/gpgpu-sim_distribution/accelwattch*.xml .
cp ~/Project/gpgpu-sim_distribution/config_volta*.icnt .
(base) hujian@W780-G20:~/Project/gpu-rodinia-3.1/cuda/backprop$ ./backprop 65536
self exe links to: /home/hujian/Project/gpu-rodinia-3.1/cuda/backprop/backprop
self exe links to: /home/hujian/Project/gpu-rodinia-3.1/cuda/backprop/backprop
11.0


        *** GPGPU-Sim Simulator Version 4.2.0  [build gpgpu-sim_git-commit-_modified_0.0] ***


GPGPU-Sim PTX: simulation mode 0 (can change with PTX_SIM_MODE_FUNC environment variable:
               1=functional simulation only, 0=detailed performance simulator)
GPGPU-Sim PTX: overriding embedded ptx with ptx file (PTX_SIM_USE_PTX_FILE is set)
GPGPU-Sim: Configuration options:

-save_embedded_ptx                      0 # saves ptx files embedded in binary as <n>.ptx
-keep                                   0 # keep intermediate files created by GPGPU-Sim when interfacing with external programs
-gpgpu_ptx_save_converted_ptxplus                    0 # Saved converted ptxplus to a file
-gpgpu_occupancy_sm_number                   70 # The SM number to pass to ptxas when getting register usage for computing GPU occupancy. This parameter is required in the config.
-ptx_opcode_latency_int      4,13,4,5,145,21 # Opcode latencies for integers <ADD,MAX,MUL,MAD,DIV,SHFL>Default 1,1,19,25,145,32
-ptx_opcode_latency_fp          4,13,4,5,39 # Opcode latencies for single precision floating points <ADD,MAX,MUL,MAD,DIV>Default 1,1,1,1,30
-ptx_opcode_latency_dp         8,19,8,8,330 # Opcode latencies for double precision floating points <ADD,MAX,MUL,MAD,DIV>Default 8,8,8,8,335
-ptx_opcode_latency_sfu                  100 # Opcode latencies for SFU instructionsDefault 8
-ptx_opcode_latency_tesnor                   64 # Opcode latencies for Tensor instructionsDefault 64
-ptx_opcode_initiation_int          2,2,2,2,8,4 # Opcode initiation intervals for integers <ADD,MAX,MUL,MAD,DIV,SHFL>Default 1,1,4,4,32,4
-ptx_opcode_initiation_fp            2,2,2,2,4 # Opcode initiation intervals for single precision floating points <ADD,MAX,MUL,MAD,DIV>Default 1,1,1,1,5
-ptx_opcode_initiation_dp          4,4,4,4,130 # Opcode initiation intervals for double precision floating points <ADD,MAX,MUL,MAD,DIV>Default 8,8,8,8,130
-ptx_opcode_initiation_sfu                    8 # Opcode initiation intervals for sfu instructionsDefault 8
-ptx_opcode_initiation_tensor                   64 # Opcode initiation intervals for tensor instructionsDefault 64
-cdp_latency         7200,8000,100,12000,1600 # CDP API latency <cudaStreamCreateWithFlags, cudaGetParameterBufferV2_init_perWarp, cudaGetParameterBufferV2_perKernel, cudaLaunchDeviceV2_init_perWarp, cudaLaunchDevicV2_perKernel>Default 7200,8000,100,12000,1600
-network_mode                           2 # Interconnection network mode
-inter_config_file                   mesh # Interconnection network config file
-icnt_in_buffer_limit                  512 # in_buffer_limit
-icnt_out_buffer_limit                  512 # out_buffer_limit
-icnt_subnets                           2 # subnets
-icnt_arbiter_algo                      1 # arbiter_algo
-icnt_verbose                           0 # inct_verbose
-icnt_grant_cycles                      1 # grant_cycles
-gpgpu_ptx_use_cuobjdump                    1 # Use cuobjdump to extract ptx and sass from binaries
-gpgpu_experimental_lib_support                    0 # Try to extract code from cuda libraries [Broken because of unknown cudaGetExportTable]
-checkpoint_option                      0 #  checkpointing flag (0 = no checkpoint)
-checkpoint_kernel                      1 #  checkpointing during execution of which kernel (1- 1st kernel)
-checkpoint_CTA                         0 #  checkpointing after # of CTA (< less than total CTA)
-resume_option                          0 #  resume flag (0 = no resume)
-resume_kernel                          0 #  Resume from which kernel (1= 1st kernel)
-resume_CTA                             0 #  resume from which CTA
-checkpoint_CTA_t                       0 #  resume from which CTA
-checkpoint_insn_Y                      0 #  resume from which CTA
-gpgpu_ptx_convert_to_ptxplus                    0 # Convert SASS (native ISA) to ptxplus and run ptxplus
-gpgpu_ptx_force_max_capability                   70 # Force maximum compute capability
-gpgpu_ptx_inst_debug_to_file                    0 # Dump executed instructions' debug information to file
-gpgpu_ptx_inst_debug_file       inst_debug.txt # Executed instructions' debug output file
-gpgpu_ptx_inst_debug_thread_uid                    1 # Thread UID for executed instructions' debug output
-gpgpu_simd_model                       1 # 1 = post-dominator
-gpgpu_shader_core_pipeline              2048:32 # shader core pipeline config, i.e., {<nthread>:<warpsize>}
-gpgpu_tex_cache:l1  N:4:128:256,L:R:m:N:L,T:512:8,128:2 # per-shader L1 texture cache  (READ-ONLY) config  {<nsets>:<bsize>:<assoc>,<rep>:<wr>:<alloc>:<wr_alloc>,<mshr>:<N>:<merge>,<mq>:<rf>}
-gpgpu_const_cache:l1 N:128:64:8,L:R:f:N:L,S:2:64,4 # per-shader L1 constant memory cache  (READ-ONLY) config  {<nsets>:<bsize>:<assoc>,<rep>:<wr>:<alloc>:<wr_alloc>,<mshr>:<N>:<merge>,<mq>}
-gpgpu_cache:il1     N:64:128:16,L:R:f:N:L,S:2:48,4 # shader L1 instruction cache config  {<nsets>:<bsize>:<assoc>,<rep>:<wr>:<alloc>:<wr_alloc>,<mshr>:<N>:<merge>,<mq>}
-gpgpu_cache:dl1     S:4:128:64,L:T:m:L:L,A:512:8,16:0,32 # per-shader L1 data cache config  {<nsets>:<bsize>:<assoc>,<rep>:<wr>:<alloc>:<wr_alloc>,<mshr>:<N>:<merge>,<mq> | none}
-gpgpu_l1_cache_write_ratio                   25 # L1D write ratio
-gpgpu_l1_banks                         4 # The number of L1 cache banks
-gpgpu_l1_banks_byte_interleaving                   32 # l1 banks byte interleaving granularity
-gpgpu_l1_banks_hashing_function                    0 # l1 banks hashing function
-gpgpu_l1_latency                      20 # L1 Hit Latency
-gpgpu_smem_latency                    20 # smem Latency
-gpgpu_cache:dl1PrefL1                 none # per-shader L1 data cache config  {<nsets>:<bsize>:<assoc>,<rep>:<wr>:<alloc>:<wr_alloc>,<mshr>:<N>:<merge>,<mq> | none}
-gpgpu_cache:dl1PrefShared                 none # per-shader L1 data cache config  {<nsets>:<bsize>:<assoc>,<rep>:<wr>:<alloc>:<wr_alloc>,<mshr>:<N>:<merge>,<mq> | none}
-gpgpu_gmem_skip_L1D                    0 # global memory access skip L1D cache (implements -Xptxas -dlcm=cg, default=no skip)
-gpgpu_perfect_mem                      0 # enable perfect memory mode (no cache miss)
-n_regfile_gating_group                    4 # group of lanes that should be read/written together)
-gpgpu_clock_gated_reg_file                    0 # enable clock gated reg file for power calculations
-gpgpu_clock_gated_lanes                    1 # enable clock gated lanes for power calculations
-gpgpu_shader_registers                65536 # Number of registers per shader core. Limits number of concurrent CTAs. (default 8192)
-gpgpu_registers_per_block                65536 # Maximum number of registers per CTA. (default 8192)
-gpgpu_ignore_resources_limitation                    0 # gpgpu_ignore_resources_limitation (default 0)
-gpgpu_shader_cta                      32 # Maximum number of concurrent CTAs in shader (default 32)
-gpgpu_num_cta_barriers                   16 # Maximum number of named barriers per CTA (default 16)
-gpgpu_n_clusters                      80 # number of processing clusters
-gpgpu_n_cores_per_cluster                    1 # number of simd cores per cluster
-gpgpu_n_cluster_ejection_buffer_size                   32 # number of packets in ejection buffer
-gpgpu_n_ldst_response_buffer_size                    2 # number of response packets in ld/st unit ejection buffer
-gpgpu_shmem_per_block                65536 # Size of shared memory per thread block or CTA (default 48kB)
-gpgpu_shmem_size                   98304 # Size of shared memory per shader core (default 16kB)
-gpgpu_shmem_option       0,8,16,32,64,96 # Option list of shared memory sizes
-gpgpu_unified_l1d_size                  128 # Size of unified data cache(L1D + shared memory) in KB
-gpgpu_adaptive_cache_config                    1 # adaptive_cache_config
-gpgpu_shmem_sizeDefault                98304 # Size of shared memory per shader core (default 16kB)
-gpgpu_shmem_size_PrefL1                16384 # Size of shared memory per shader core (default 16kB)
-gpgpu_shmem_size_PrefShared                16384 # Size of shared memory per shader core (default 16kB)
-gpgpu_shmem_num_banks                   32 # Number of banks in the shared memory in each shader core (default 16)
-gpgpu_shmem_limited_broadcast                    0 # Limit shared memory to do one broadcast per cycle (default on)
-gpgpu_shmem_warp_parts                    1 # Number of portions a warp is divided into for shared memory bank conflict check
-gpgpu_mem_unit_ports                    1 # The number of memory transactions allowed per core cycle
-gpgpu_shmem_warp_parts                    1 # Number of portions a warp is divided into for shared memory bank conflict check
-gpgpu_warpdistro_shader                   -1 # Specify which shader core to collect the warp size distribution from
-gpgpu_warp_issue_shader                    0 # Specify which shader core to collect the warp issue distribution from
-gpgpu_local_mem_map                    1 # Mapping from local memory space address to simulated GPU physical address space (default = enabled)
-gpgpu_num_reg_banks                   16 # Number of register banks (default = 8)
-gpgpu_reg_bank_use_warp_id                    0 # Use warp ID in mapping registers to banks (default = off)
-gpgpu_sub_core_model                    1 # Sub Core Volta/Pascal model (default = off)
-gpgpu_enable_specialized_operand_collector                    0 # enable_specialized_operand_collector
-gpgpu_operand_collector_num_units_sp                    4 # number of collector units (default = 4)
-gpgpu_operand_collector_num_units_dp                    0 # number of collector units (default = 0)
-gpgpu_operand_collector_num_units_sfu                    4 # number of collector units (default = 4)
-gpgpu_operand_collector_num_units_int                    0 # number of collector units (default = 0)
-gpgpu_operand_collector_num_units_tensor_core                    4 # number of collector units (default = 4)
-gpgpu_operand_collector_num_units_mem                    2 # number of collector units (default = 2)
-gpgpu_operand_collector_num_units_gen                    8 # number of collector units (default = 0)
-gpgpu_operand_collector_num_in_ports_sp                    1 # number of collector unit in ports (default = 1)
-gpgpu_operand_collector_num_in_ports_dp                    0 # number of collector unit in ports (default = 0)
-gpgpu_operand_collector_num_in_ports_sfu                    1 # number of collector unit in ports (default = 1)
-gpgpu_operand_collector_num_in_ports_int                    0 # number of collector unit in ports (default = 0)
-gpgpu_operand_collector_num_in_ports_tensor_core                    1 # number of collector unit in ports (default = 1)
-gpgpu_operand_collector_num_in_ports_mem                    1 # number of collector unit in ports (default = 1)
-gpgpu_operand_collector_num_in_ports_gen                    8 # number of collector unit in ports (default = 0)
-gpgpu_operand_collector_num_out_ports_sp                    1 # number of collector unit in ports (default = 1)
-gpgpu_operand_collector_num_out_ports_dp                    0 # number of collector unit in ports (default = 0)
-gpgpu_operand_collector_num_out_ports_sfu                    1 # number of collector unit in ports (default = 1)
-gpgpu_operand_collector_num_out_ports_int                    0 # number of collector unit in ports (default = 0)
-gpgpu_operand_collector_num_out_ports_tensor_core                    1 # number of collector unit in ports (default = 1)
-gpgpu_operand_collector_num_out_ports_mem                    1 # number of collector unit in ports (default = 1)
-gpgpu_operand_collector_num_out_ports_gen                    8 # number of collector unit in ports (default = 0)
-gpgpu_coalesce_arch                   70 # Coalescing arch (GT200 = 13, Fermi = 20)
-gpgpu_num_sched_per_core                    4 # Number of warp schedulers per core
-gpgpu_max_insn_issue_per_warp                    1 # Max number of instructions that can be issued per warp in one cycle by scheduler (either 1 or 2)
-gpgpu_dual_issue_diff_exec_units                    1 # should dual issue use two different execution unit resources (Default = 1)
-gpgpu_simt_core_sim_order                    1 # Select the simulation order of cores in a cluster (0=Fix, 1=Round-Robin)
-gpgpu_pipeline_widths 4,4,4,4,4,4,4,4,4,4,8,4,4 # Pipeline widths ID_OC_SP,ID_OC_DP,ID_OC_INT,ID_OC_SFU,ID_OC_MEM,OC_EX_SP,OC_EX_DP,OC_EX_INT,OC_EX_SFU,OC_EX_MEM,EX_WB,ID_OC_TENSOR_CORE,OC_EX_TENSOR_CORE
-gpgpu_tensor_core_avail                    1 # Tensor Core Available (default=0)
-gpgpu_num_sp_units                     4 # Number of SP units (default=1)
-gpgpu_num_dp_units                     4 # Number of DP units (default=0)
-gpgpu_num_int_units                    4 # Number of INT units (default=0)
-gpgpu_num_sfu_units                    4 # Number of SF units (default=1)
-gpgpu_num_tensor_core_units                    4 # Number of tensor_core units (default=1)
-gpgpu_num_mem_units                    1 # Number if ldst units (default=1) WARNING: not hooked up to anything
-gpgpu_scheduler                      lrr # Scheduler configuration: < lrr | gto | two_level_active > If two_level_active:<num_active_warps>:<inner_prioritization>:<outer_prioritization>For complete list of prioritization values see shader.h enum scheduler_prioritization_typeDefault: gto
-gpgpu_concurrent_kernel_sm                    0 # Support concurrent kernels on a SM (default = disabled)
-gpgpu_perfect_inst_const_cache                    1 # perfect inst and const cache mode, so all inst and const hits in the cache(default = disabled)
-gpgpu_inst_fetch_throughput                    4 # the number of fetched intruction per warp each cycle
-gpgpu_reg_file_port_throughput                    2 # the number ports of the register file
-specialized_unit_1         0,4,4,4,4,BRA # specialized unit config {<enabled>,<num_units>:<latency>:<initiation>,<ID_OC_SPEC>:<OC_EX_SPEC>,<NAME>}
-specialized_unit_2         0,4,4,4,4,BRA # specialized unit config {<enabled>,<num_units>:<latency>:<initiation>,<ID_OC_SPEC>:<OC_EX_SPEC>,<NAME>}
-specialized_unit_3         0,4,4,4,4,BRA # specialized unit config {<enabled>,<num_units>:<latency>:<initiation>,<ID_OC_SPEC>:<OC_EX_SPEC>,<NAME>}
-specialized_unit_4         0,4,4,4,4,BRA # specialized unit config {<enabled>,<num_units>:<latency>:<initiation>,<ID_OC_SPEC>:<OC_EX_SPEC>,<NAME>}
-specialized_unit_5         0,4,4,4,4,BRA # specialized unit config {<enabled>,<num_units>:<latency>:<initiation>,<ID_OC_SPEC>:<OC_EX_SPEC>,<NAME>}
-specialized_unit_6         0,4,4,4,4,BRA # specialized unit config {<enabled>,<num_units>:<latency>:<initiation>,<ID_OC_SPEC>:<OC_EX_SPEC>,<NAME>}
-specialized_unit_7         0,4,4,4,4,BRA # specialized unit config {<enabled>,<num_units>:<latency>:<initiation>,<ID_OC_SPEC>:<OC_EX_SPEC>,<NAME>}
-specialized_unit_8         0,4,4,4,4,BRA # specialized unit config {<enabled>,<num_units>:<latency>:<initiation>,<ID_OC_SPEC>:<OC_EX_SPEC>,<NAME>}
-gpgpu_perf_sim_memcpy                    1 # Fill the L2 cache on memcpy
-gpgpu_simple_dram_model                    0 # simple_dram_model with fixed latency and BW
-gpgpu_dram_scheduler                    1 # 0 = fifo, 1 = FR-FCFS (defaul)
-gpgpu_dram_partition_queues          64:64:64:64 # i2$:$2d:d2$:$2i
-l2_ideal                               0 # Use a ideal L2 cache that always hit
-gpgpu_cache:dl2     S:32:128:24,L:B:m:L:P,A:192:4,32:0,32 # unified banked L2 data cache config  {<nsets>:<bsize>:<assoc>,<rep>:<wr>:<alloc>:<wr_alloc>,<mshr>:<N>:<merge>,<mq>}
-gpgpu_cache:dl2_texture_only                    0 # L2 cache used for texture only
-gpgpu_n_mem                           32 # number of memory modules (e.g. memory controllers) in gpu
-gpgpu_n_sub_partition_per_mchannel                    2 # number of memory subpartition in each memory module
-gpgpu_n_mem_per_ctrlr                    1 # number of memory chips per memory controller
-gpgpu_memlatency_stat                   14 # track and display latency statistics 0x2 enables MC, 0x4 enables queue logs
-gpgpu_frfcfs_dram_sched_queue_size                   64 # 0 = unlimited (default); # entries per chip
-gpgpu_dram_return_queue_size                  192 # 0 = unlimited (default); # entries per chip
-gpgpu_dram_buswidth                   16 # default = 4 bytes (8 bytes per cycle at DDR)
-gpgpu_dram_burst_length                    2 # Burst length of each DRAM request (default = 4 data bus cycle)
-dram_data_command_freq_ratio                    2 # Frequency ratio between DRAM data bus and command bus (default = 2 times, i.e. DDR)
-gpgpu_dram_timing_opt nbk=16:CCD=1:RRD=3:RCD=12:RAS=28:RP=12:RC=40: CL=12:WL=2:CDLR=3:WR=10:nbkgrp=4:CCDL=2:RTPL=3 # DRAM timing parameters = {nbk:tCCD:tRRD:tRCD:tRAS:tRP:tRC:CL:WL:tCDLR:tWR:nbkgrp:tCCDL:tRTPL}
-gpgpu_l2_rop_latency                  160 # ROP queue latency (default 85)
-dram_latency                         100 # DRAM latency (default 30)
-dram_dual_bus_interface                    1 # dual_bus_interface (default = 0)
-dram_bnk_indexing_policy                    0 # dram_bnk_indexing_policy (0 = normal indexing, 1 = Xoring with the higher bits) (Default = 0)
-dram_bnkgrp_indexing_policy                    1 # dram_bnkgrp_indexing_policy (0 = take higher bits, 1 = take lower bits) (Default = 0)
-dram_seperate_write_queue_enable                    0 # Seperate_Write_Queue_Enable
-dram_write_queue_size             32:28:16 # Write_Queue_Size
-dram_elimnate_rw_turnaround                    0 # elimnate_rw_turnaround i.e set tWTR and tRTW = 0
-icnt_flit_size                        40 # icnt_flit_size
-SST_mode                               0 # SST mode
-gpgpu_mem_addr_mapping dramid@8;00000000.00000000.00000000.00000000.0000RRRR.RRRRRRRR.RBBBCCCB.CCCSSSSS # mapping memory address to dram model {dramid@<start bit>;<memory address map>}
-gpgpu_mem_addr_test                    0 # run sweep test to check address mapping for aliased address
-gpgpu_mem_address_mask                    1 # 0 = old addressing mask, 1 = new addressing mask, 2 = new add. mask + flipped bank sel and chip sel bits
-gpgpu_memory_partition_indexing                    2 # 0 = no indexing, 1 = bitwise xoring, 2 = IPoly, 3 = custom indexing
-accelwattch_xml_file accelwattch_sass_sim.xml # AccelWattch XML file
-power_simulation_enabled                    0 # Turn on power simulator (1=On, 0=Off)
-power_per_cycle_dump                    0 # Dump detailed power output each cycle
-hw_perf_file_name            hw_perf.csv # Hardware Performance Statistics file
-hw_perf_bench_name                       # Kernel Name in Hardware Performance Statistics file
-power_simulation_mode                    0 # Switch performance counter input for power simulation (0=Sim, 1=HW, 2=HW-Sim Hybrid)
-dvfs_enabled                           0 # Turn on DVFS for power model
-aggregate_power_stats                    0 # Accumulate power across all kernels
-accelwattch_hybrid_perfsim_L1_RH                    0 # Get L1 Read Hits for Accelwattch-Hybrid from Accel-Sim
-accelwattch_hybrid_perfsim_L1_RM                    0 # Get L1 Read Misses for Accelwattch-Hybrid from Accel-Sim
-accelwattch_hybrid_perfsim_L1_WH                    0 # Get L1 Write Hits for Accelwattch-Hybrid from Accel-Sim
-accelwattch_hybrid_perfsim_L1_WM                    0 # Get L1 Write Misses for Accelwattch-Hybrid from Accel-Sim
-accelwattch_hybrid_perfsim_L2_RH                    0 # Get L2 Read Hits for Accelwattch-Hybrid from Accel-Sim
-accelwattch_hybrid_perfsim_L2_RM                    0 # Get L2 Read Misses for Accelwattch-Hybrid from Accel-Sim
-accelwattch_hybrid_perfsim_L2_WH                    0 # Get L2 Write Hits for Accelwattch-Hybrid from Accel-Sim
-accelwattch_hybrid_perfsim_L2_WM                    0 # Get L2 Write Misses for Accelwattch-Hybrid from Accel-Sim
-accelwattch_hybrid_perfsim_CC_ACC                    0 # Get Constant Cache Acesses for Accelwattch-Hybrid from Accel-Sim
-accelwattch_hybrid_perfsim_SHARED_ACC                    0 # Get Shared Memory Acesses for Accelwattch-Hybrid from Accel-Sim
-accelwattch_hybrid_perfsim_DRAM_RD                    0 # Get DRAM Reads for Accelwattch-Hybrid from Accel-Sim
-accelwattch_hybrid_perfsim_DRAM_WR                    0 # Get DRAM Writes for Accelwattch-Hybrid from Accel-Sim
-accelwattch_hybrid_perfsim_NOC                    0 # Get Interconnect Acesses for Accelwattch-Hybrid from Accel-Sim
-accelwattch_hybrid_perfsim_PIPE_DUTY                    0 # Get Pipeline Duty Cycle Acesses for Accelwattch-Hybrid from Accel-Sim
-accelwattch_hybrid_perfsim_NUM_SM_IDLE                    0 # Get Number of Idle SMs for Accelwattch-Hybrid from Accel-Sim
-accelwattch_hybrid_perfsim_CYCLES                    0 # Get Executed Cycles for Accelwattch-Hybrid from Accel-Sim
-accelwattch_hybrid_perfsim_VOLTAGE                    0 # Get Chip Voltage for Accelwattch-Hybrid from Accel-Sim
-power_trace_enabled                    0 # produce a file for the power trace (1=On, 0=Off)
-power_trace_zlevel                     6 # Compression level of the power trace output log (0=no comp, 9=highest)
-steady_power_levels_enabled                    0 # produce a file for the steady power levels (1=On, 0=Off)
-steady_state_definition                  8:4 # allowed deviation:number of samples
-gpgpu_max_cycle                        0 # terminates gpu simulation early (0 = no limit)
-gpgpu_max_insn                         0 # terminates gpu simulation early (0 = no limit)
-gpgpu_max_cta                          0 # terminates gpu simulation early (0 = no limit)
-gpgpu_max_completed_cta                    0 # terminates gpu simulation early (0 = no limit)
-gpgpu_runtime_stat                   500 # display runtime statistics such as dram utilization {<freq>:<flag>}
-liveness_message_freq                    1 # Minimum number of seconds between simulation liveness messages (0 = always print)
-gpgpu_compute_capability_major                    7 # Major compute capability version number
-gpgpu_compute_capability_minor                    0 # Minor compute capability version number
-gpgpu_flush_l1_cache                    1 # Flush L1 cache at the end of each kernel call
-gpgpu_flush_l2_cache                    0 # Flush L2 cache at the end of each kernel call
-gpgpu_deadlock_detect                    1 # Stop the simulation at deadlock (1=on (default), 0=off)
-gpgpu_ptx_instruction_classification                    0 # if enabled will classify ptx instruction types per kernel (Max 255 kernels now)
-gpgpu_ptx_sim_mode                     0 # Select between Performance (default) or Functional simulation (1)
-gpgpu_clock_domains 1447.0:1447.0:1447.0:850.0 # Clock Domain Frequencies in MhZ {<Core Clock>:<ICNT Clock>:<L2 Clock>:<DRAM Clock>}
-gpgpu_max_concurrent_kernel                  128 # maximum kernels that can run concurrently on GPU, set this value according to max resident grids for your compute capability
-gpgpu_cflog_interval                    0 # Interval between each snapshot in control flow logger
-visualizer_enabled                     0 # Turn on visualizer output (1=On, 0=Off)
-visualizer_outputfile                 NULL # Specifies the output log file for visualizer
-visualizer_zlevel                      6 # Compression level of the visualizer output log (0=no comp, 9=highest)
-gpgpu_stack_size_limit                 1024 # GPU thread stack size
-gpgpu_heap_size_limit              8388608 # GPU malloc heap size
-gpgpu_runtime_sync_depth_limit                    2 # GPU device runtime synchronize depth
-gpgpu_runtime_pending_launch_count_limit                 2048 # GPU device runtime pending launch count
-trace_enabled                          0 # Turn on traces
-trace_components                    none # comma seperated list of traces to enable. Complete list found in trace_streams.tup. Default none
-trace_sampling_core                    0 # The core which is printed using CORE_DPRINTF. Default 0
-trace_sampling_memory_partition                   -1 # The memory partition which is printed using MEMPART_DPRINTF. Default -1 (i.e. all)
-enable_ptx_file_line_stats                    1 # Turn on PTX source line statistic profiling. (1 = On)
-ptx_line_stats_filename gpgpu_inst_stats.txt # Output file for PTX source line statistics.
-gpgpu_kernel_launch_latency                 5000 # Kernel launch latency in cycles. Default: 0
-gpgpu_cdp_enabled                      0 # Turn on CDP
-gpgpu_TB_launch_latency                    0 # thread block launch latency in cycles. Default: 0
DRAM Timing Options:
nbk                                    16 # number of banks
CCD                                     1 # column to column delay
RRD                                     3 # minimal delay between activation of rows in different banks
RCD                                    12 # row to column delay
RAS                                    28 # time needed to activate row
RP                                     12 # time needed to precharge (deactivate) row
RC                                     40 # row cycle time
CDLR                                    3 # switching from write to read (changes tWTR)
WR                                     10 # last data-in to row precharge
CL                                     12 # CAS latency
WL                                      2 # Write latency
nbkgrp                                  4 # number of bank groups
CCDL                                    2 # column to column delay between accesses to different bank groups
RTPL                                    3 # read to precharge delay between accesses to different bank groups
Total number of memory sub partition = 64
addr_dec_mask[CHIP]  = 0000000000001f00         high:13 low:8
addr_dec_mask[BK]    = 00000000000e2000         high:20 low:13
addr_dec_mask[ROW]   = 00000001fff00000         high:33 low:20
addr_dec_mask[COL]   = 000000000001c0ff         high:17 low:0
addr_dec_mask[BURST] = 000000000000001f         high:5 low:0
sub_partition_id_mask = 0000000000002000
GPGPU-Sim uArch: clock freqs: 1447000000.000000:1447000000.000000:1447000000.000000:850000000.000000
GPGPU-Sim uArch: clock periods: 0.00000000069108500346:0.00000000069108500346:0.00000000069108500346:0.00000000117647058824
*** Initializing Memory Statistics ***
GPGPU-Sim uArch: performance model initialization complete.
GPGPU-Sim PTX: __cudaRegisterFatBinary, fat_cubin_handle = 1, filename=default
self exe links to: /home/hujian/Project/gpu-rodinia-3.1/cuda/backprop/backprop
Running md5sum using "md5sum /home/hujian/Project/gpu-rodinia-3.1/cuda/backprop/backprop "
e375d1523c4325c04a722a8c313ed5bd  /home/hujian/Project/gpu-rodinia-3.1/cuda/backprop/backprop
self exe links to: /home/hujian/Project/gpu-rodinia-3.1/cuda/backprop/backprop
Extracting specific PTX file named backprop.1.sm_52.ptx
Extracting PTX file and ptxas options    1: backprop.1.sm_52.ptx -arch=sm_52
GPGPU-Sim PTX: __cudaRegisterFunction _Z24bpnn_adjust_weights_cudaPfiS_iS_S_ : hostFun 0x0x61dbaa6c4bf0, fat_cubin_handle = 1
GPGPU-Sim PTX: Parsing backprop.1.sm_52.ptx
GPGPU-Sim PTX: allocating shared region for "_ZZ22bpnn_layerforward_CUDAPfS_S_S_iiE10input_node" from 0x0 to 0x40 (shared memory space)
GPGPU-Sim PTX: allocating shared region for "_ZZ22bpnn_layerforward_CUDAPfS_S_S_iiE13weight_matrix" from 0x80 to 0x480 (shared memory space)
GPGPU-Sim PTX: instruction assembly for function '_Z22bpnn_layerforward_CUDAPfS_S_S_ii'...   done.
GPGPU-Sim PTX: instruction assembly for function '_Z24bpnn_adjust_weights_cudaPfiS_iS_S_'...   done.
GPGPU-Sim PTX: finished parsing EMBEDDED .ptx file backprop.1.sm_52.ptx
GPGPU-Sim PTX: loading globals with explicit initializers...
GPGPU-Sim PTX: finished loading globals (0 bytes total).
GPGPU-Sim PTX: loading constants with explicit initializers...  done.
GPGPU-Sim PTX: Loading PTXInfo from backprop.1.sm_52.ptx
GPGPU-Sim PTX: Kernel '_Z24bpnn_adjust_weights_cudaPfiS_iS_S_' : regs=23, lmem=0, smem=0, cmem=376
GPGPU-Sim PTX: Kernel '_Z22bpnn_layerforward_CUDAPfS_S_S_ii' : regs=20, lmem=0, smem=1088, cmem=360
GPGPU-Sim PTX: __cudaRegisterFunction _Z22bpnn_layerforward_CUDAPfS_S_S_ii : hostFun 0x0x61dbaa6c4ac0, fat_cubin_handle = 1
Random number generator seed: 7
Input layer size : 65536
Starting training kernel
Performing GPU computation
GPGPU-Sim PTX: Setting up arguments for 8 bytes starting at 0x7ffd6c46f5e8..
GPGPU-Sim PTX: Setting up arguments for 8 bytes starting at 0x7ffd6c46f5e0..
GPGPU-Sim PTX: Setting up arguments for 8 bytes starting at 0x7ffd6c46f5d8..
GPGPU-Sim PTX: Setting up arguments for 8 bytes starting at 0x7ffd6c46f5d0..
GPGPU-Sim PTX: Setting up arguments for 4 bytes starting at 0x7ffd6c46f5cc..
GPGPU-Sim PTX: Setting up arguments for 4 bytes starting at 0x7ffd6c46f5c8..

GPGPU-Sim PTX: cudaLaunch for 0x0x61dbaa6c4ac0 (mode=performance simulation) on stream 0
GPGPU-Sim PTX: finding reconvergence points for '_Z22bpnn_layerforward_CUDAPfS_S_S_ii'...
GPGPU-Sim PTX: Finding dominators for '_Z22bpnn_layerforward_CUDAPfS_S_S_ii'...
GPGPU-Sim PTX: Finding immediate dominators for '_Z22bpnn_layerforward_CUDAPfS_S_S_ii'...
GPGPU-Sim PTX: Finding postdominators for '_Z22bpnn_layerforward_CUDAPfS_S_S_ii'...
GPGPU-Sim PTX: Finding immediate postdominators for '_Z22bpnn_layerforward_CUDAPfS_S_S_ii'...
GPGPU-Sim PTX: pre-decoding instructions for '_Z22bpnn_layerforward_CUDAPfS_S_S_ii'...
GPGPU-Sim PTX: reconvergence points for _Z22bpnn_layerforward_CUDAPfS_S_S_ii...
GPGPU-Sim PTX:  1 (potential) branch divergence @  PC=0x058 (backprop.1.sm_52.ptx:46) @%p1 bra $L__BB0_2;
GPGPU-Sim PTX:    immediate post dominator      @  PC=0x098 (backprop.1.sm_52.ptx:57) bar.sync 0;
GPGPU-Sim PTX:  2 (potential) branch divergence @  PC=0x170 (backprop.1.sm_52.ptx:84) @%p2 bra $L__BB0_4;
GPGPU-Sim PTX:    immediate post dominator      @  PC=0x1b8 (backprop.1.sm_52.ptx:96) bar.sync 0;
GPGPU-Sim PTX:  3 (potential) branch divergence @  PC=0x1e0 (backprop.1.sm_52.ptx:101) @%p3 bra $L__BB0_6;
GPGPU-Sim PTX:    immediate post dominator      @  PC=0x228 (backprop.1.sm_52.ptx:113) bar.sync 0;
GPGPU-Sim PTX:  4 (potential) branch divergence @  PC=0x250 (backprop.1.sm_52.ptx:118) @%p4 bra $L__BB0_8;
GPGPU-Sim PTX:    immediate post dominator      @  PC=0x298 (backprop.1.sm_52.ptx:130) bar.sync 0;
GPGPU-Sim PTX:  5 (potential) branch divergence @  PC=0x2c0 (backprop.1.sm_52.ptx:135) @%p5 bra $L__BB0_10;
GPGPU-Sim PTX:    immediate post dominator      @  PC=0x308 (backprop.1.sm_52.ptx:147) bar.sync 0;
GPGPU-Sim PTX:  6 (potential) branch divergence @  PC=0x328 (backprop.1.sm_52.ptx:151) @%p1 bra $L__BB0_12;
GPGPU-Sim PTX:    immediate post dominator      @  PC=0x368 (backprop.1.sm_52.ptx:162) ret;
GPGPU-Sim PTX: ... end of reconvergence points for _Z22bpnn_layerforward_CUDAPfS_S_S_ii
GPGPU-Sim PTX: ... done pre-decoding instructions for '_Z22bpnn_layerforward_CUDAPfS_S_S_ii'.
GPGPU-Sim PTX: pushing kernel '_Z22bpnn_layerforward_CUDAPfS_S_S_ii' to stream 0, gridDim= (1,4096,1) blockDim = (16,16,1)
GPGPU-Sim uArch: Shader 0 bind to kernel 1 '_Z22bpnn_layerforward_CUDAPfS_S_S_ii'
GPGPU-Sim uArch: CTA/core = 8, limited by: threads
GPGPU-Sim: Reconfigure L1 cache to 112KB
GPGPU-Sim uArch: Shader 1 bind to kernel 1 '_Z22bpnn_layerforward_CUDAPfS_S_S_ii'
GPGPU-Sim uArch: Shader 2 bind to kernel 1 '_Z22bpnn_layerforward_CUDAPfS_S_S_ii'
GPGPU-Sim uArch: Shader 3 bind to kernel 1 '_Z22bpnn_layerforward_CUDAPfS_S_S_ii'
GPGPU-Sim uArch: Shader 4 bind to kernel 1 '_Z22bpnn_layerforward_CUDAPfS_S_S_ii'
GPGPU-Sim uArch: Shader 5 bind to kernel 1 '_Z22bpnn_layerforward_CUDAPfS_S_S_ii'
GPGPU-Sim uArch: Shader 6 bind to kernel 1 '_Z22bpnn_layerforward_CUDAPfS_S_S_ii'
GPGPU-Sim uArch: Shader 7 bind to kernel 1 '_Z22bpnn_layerforward_CUDAPfS_S_S_ii'
GPGPU-Sim uArch: Shader 8 bind to kernel 1 '_Z22bpnn_layerforward_CUDAPfS_S_S_ii'
GPGPU-Sim uArch: Shader 9 bind to kernel 1 '_Z22bpnn_layerforward_CUDAPfS_S_S_ii'
GPGPU-Sim uArch: Shader 10 bind to kernel 1 '_Z22bpnn_layerforward_CUDAPfS_S_S_ii'
GPGPU-Sim uArch: Shader 11 bind to kernel 1 '_Z22bpnn_layerforward_CUDAPfS_S_S_ii'
GPGPU-Sim uArch: Shader 12 bind to kernel 1 '_Z22bpnn_layerforward_CUDAPfS_S_S_ii'
GPGPU-Sim uArch: Shader 13 bind to kernel 1 '_Z22bpnn_layerforward_CUDAPfS_S_S_ii'
GPGPU-Sim uArch: Shader 14 bind to kernel 1 '_Z22bpnn_layerforward_CUDAPfS_S_S_ii'
GPGPU-Sim uArch: Shader 15 bind to kernel 1 '_Z22bpnn_layerforward_CUDAPfS_S_S_ii'
GPGPU-Sim uArch: Shader 16 bind to kernel 1 '_Z22bpnn_layerforward_CUDAPfS_S_S_ii'
GPGPU-Sim uArch: Shader 17 bind to kernel 1 '_Z22bpnn_layerforward_CUDAPfS_S_S_ii'
GPGPU-Sim uArch: Shader 18 bind to kernel 1 '_Z22bpnn_layerforward_CUDAPfS_S_S_ii'
GPGPU-Sim uArch: Shader 19 bind to kernel 1 '_Z22bpnn_layerforward_CUDAPfS_S_S_ii'
GPGPU-Sim uArch: Shader 20 bind to kernel 1 '_Z22bpnn_layerforward_CUDAPfS_S_S_ii'
GPGPU-Sim uArch: Shader 21 bind to kernel 1 '_Z22bpnn_layerforward_CUDAPfS_S_S_ii'
GPGPU-Sim uArch: Shader 22 bind to kernel 1 '_Z22bpnn_layerforward_CUDAPfS_S_S_ii'
GPGPU-Sim uArch: Shader 23 bind to kernel 1 '_Z22bpnn_layerforward_CUDAPfS_S_S_ii'
GPGPU-Sim uArch: Shader 24 bind to kernel 1 '_Z22bpnn_layerforward_CUDAPfS_S_S_ii'
GPGPU-Sim uArch: Shader 25 bind to kernel 1 '_Z22bpnn_layerforward_CUDAPfS_S_S_ii'
GPGPU-Sim uArch: Shader 26 bind to kernel 1 '_Z22bpnn_layerforward_CUDAPfS_S_S_ii'
GPGPU-Sim uArch: Shader 27 bind to kernel 1 '_Z22bpnn_layerforward_CUDAPfS_S_S_ii'
GPGPU-Sim uArch: Shader 28 bind to kernel 1 '_Z22bpnn_layerforward_CUDAPfS_S_S_ii'
GPGPU-Sim uArch: Shader 29 bind to kernel 1 '_Z22bpnn_layerforward_CUDAPfS_S_S_ii'
GPGPU-Sim uArch: Shader 30 bind to kernel 1 '_Z22bpnn_layerforward_CUDAPfS_S_S_ii'
GPGPU-Sim uArch: Shader 31 bind to kernel 1 '_Z22bpnn_layerforward_CUDAPfS_S_S_ii'
GPGPU-Sim uArch: Shader 32 bind to kernel 1 '_Z22bpnn_layerforward_CUDAPfS_S_S_ii'
GPGPU-Sim uArch: Shader 33 bind to kernel 1 '_Z22bpnn_layerforward_CUDAPfS_S_S_ii'
GPGPU-Sim uArch: Shader 34 bind to kernel 1 '_Z22bpnn_layerforward_CUDAPfS_S_S_ii'
GPGPU-Sim uArch: Shader 35 bind to kernel 1 '_Z22bpnn_layerforward_CUDAPfS_S_S_ii'
GPGPU-Sim uArch: Shader 36 bind to kernel 1 '_Z22bpnn_layerforward_CUDAPfS_S_S_ii'
GPGPU-Sim uArch: Shader 37 bind to kernel 1 '_Z22bpnn_layerforward_CUDAPfS_S_S_ii'
GPGPU-Sim uArch: Shader 38 bind to kernel 1 '_Z22bpnn_layerforward_CUDAPfS_S_S_ii'
GPGPU-Sim uArch: Shader 39 bind to kernel 1 '_Z22bpnn_layerforward_CUDAPfS_S_S_ii'
GPGPU-Sim uArch: Shader 40 bind to kernel 1 '_Z22bpnn_layerforward_CUDAPfS_S_S_ii'
GPGPU-Sim uArch: Shader 41 bind to kernel 1 '_Z22bpnn_layerforward_CUDAPfS_S_S_ii'
GPGPU-Sim uArch: Shader 42 bind to kernel 1 '_Z22bpnn_layerforward_CUDAPfS_S_S_ii'
GPGPU-Sim uArch: Shader 43 bind to kernel 1 '_Z22bpnn_layerforward_CUDAPfS_S_S_ii'
GPGPU-Sim uArch: Shader 44 bind to kernel 1 '_Z22bpnn_layerforward_CUDAPfS_S_S_ii'
GPGPU-Sim uArch: Shader 45 bind to kernel 1 '_Z22bpnn_layerforward_CUDAPfS_S_S_ii'
GPGPU-Sim uArch: Shader 46 bind to kernel 1 '_Z22bpnn_layerforward_CUDAPfS_S_S_ii'
GPGPU-Sim uArch: Shader 47 bind to kernel 1 '_Z22bpnn_layerforward_CUDAPfS_S_S_ii'
GPGPU-Sim uArch: Shader 48 bind to kernel 1 '_Z22bpnn_layerforward_CUDAPfS_S_S_ii'
GPGPU-Sim uArch: Shader 49 bind to kernel 1 '_Z22bpnn_layerforward_CUDAPfS_S_S_ii'
GPGPU-Sim uArch: Shader 50 bind to kernel 1 '_Z22bpnn_layerforward_CUDAPfS_S_S_ii'
GPGPU-Sim uArch: Shader 51 bind to kernel 1 '_Z22bpnn_layerforward_CUDAPfS_S_S_ii'
GPGPU-Sim uArch: Shader 52 bind to kernel 1 '_Z22bpnn_layerforward_CUDAPfS_S_S_ii'
GPGPU-Sim uArch: Shader 53 bind to kernel 1 '_Z22bpnn_layerforward_CUDAPfS_S_S_ii'
GPGPU-Sim uArch: Shader 54 bind to kernel 1 '_Z22bpnn_layerforward_CUDAPfS_S_S_ii'
GPGPU-Sim uArch: Shader 55 bind to kernel 1 '_Z22bpnn_layerforward_CUDAPfS_S_S_ii'
GPGPU-Sim uArch: Shader 56 bind to kernel 1 '_Z22bpnn_layerforward_CUDAPfS_S_S_ii'
GPGPU-Sim uArch: Shader 57 bind to kernel 1 '_Z22bpnn_layerforward_CUDAPfS_S_S_ii'
GPGPU-Sim uArch: Shader 58 bind to kernel 1 '_Z22bpnn_layerforward_CUDAPfS_S_S_ii'
GPGPU-Sim uArch: Shader 59 bind to kernel 1 '_Z22bpnn_layerforward_CUDAPfS_S_S_ii'
GPGPU-Sim uArch: Shader 60 bind to kernel 1 '_Z22bpnn_layerforward_CUDAPfS_S_S_ii'
GPGPU-Sim uArch: Shader 61 bind to kernel 1 '_Z22bpnn_layerforward_CUDAPfS_S_S_ii'
GPGPU-Sim uArch: Shader 62 bind to kernel 1 '_Z22bpnn_layerforward_CUDAPfS_S_S_ii'
GPGPU-Sim uArch: Shader 63 bind to kernel 1 '_Z22bpnn_layerforward_CUDAPfS_S_S_ii'
GPGPU-Sim uArch: Shader 64 bind to kernel 1 '_Z22bpnn_layerforward_CUDAPfS_S_S_ii'
GPGPU-Sim uArch: Shader 65 bind to kernel 1 '_Z22bpnn_layerforward_CUDAPfS_S_S_ii'
GPGPU-Sim uArch: Shader 66 bind to kernel 1 '_Z22bpnn_layerforward_CUDAPfS_S_S_ii'
GPGPU-Sim uArch: Shader 67 bind to kernel 1 '_Z22bpnn_layerforward_CUDAPfS_S_S_ii'
GPGPU-Sim uArch: Shader 68 bind to kernel 1 '_Z22bpnn_layerforward_CUDAPfS_S_S_ii'
GPGPU-Sim uArch: Shader 69 bind to kernel 1 '_Z22bpnn_layerforward_CUDAPfS_S_S_ii'
GPGPU-Sim uArch: Shader 70 bind to kernel 1 '_Z22bpnn_layerforward_CUDAPfS_S_S_ii'
GPGPU-Sim uArch: Shader 71 bind to kernel 1 '_Z22bpnn_layerforward_CUDAPfS_S_S_ii'
GPGPU-Sim uArch: Shader 72 bind to kernel 1 '_Z22bpnn_layerforward_CUDAPfS_S_S_ii'
GPGPU-Sim uArch: Shader 73 bind to kernel 1 '_Z22bpnn_layerforward_CUDAPfS_S_S_ii'
GPGPU-Sim uArch: Shader 74 bind to kernel 1 '_Z22bpnn_layerforward_CUDAPfS_S_S_ii'
GPGPU-Sim uArch: Shader 75 bind to kernel 1 '_Z22bpnn_layerforward_CUDAPfS_S_S_ii'
GPGPU-Sim uArch: Shader 76 bind to kernel 1 '_Z22bpnn_layerforward_CUDAPfS_S_S_ii'
GPGPU-Sim uArch: Shader 77 bind to kernel 1 '_Z22bpnn_layerforward_CUDAPfS_S_S_ii'
GPGPU-Sim uArch: Shader 78 bind to kernel 1 '_Z22bpnn_layerforward_CUDAPfS_S_S_ii'
GPGPU-Sim uArch: Shader 79 bind to kernel 1 '_Z22bpnn_layerforward_CUDAPfS_S_S_ii'
Destroy streams for kernel 1: size 0
kernel_name = _Z22bpnn_layerforward_CUDAPfS_S_S_ii
kernel_launch_uid = 1
kernel_stream_id = 0
gpu_sim_cycle = 23463
gpu_sim_insn = 74776576
gpu_ipc =    3186.9998
gpu_tot_sim_cycle = 23463
gpu_tot_sim_insn = 74776576
gpu_tot_ipc =    3186.9998
gpu_tot_issued_cta = 4096
gpu_occupancy = 94.4772%
gpu_tot_occupancy = 94.4772%
max_total_param_size = 0
gpu_stall_dramfull = 0
gpu_stall_icnt2sh    = 0
partiton_level_parallism =      15.0071
partiton_level_parallism_total  =      15.0071
partiton_level_parallism_util =      21.2167
partiton_level_parallism_util_total  =      21.2167
L2_BW  =     694.8896 GB/Sec
L2_BW_total  =     694.8896 GB/Sec
gpu_total_sim_rate=450461

========= Core cache stats =========
L1I_cache:
        L1I_total_cache_accesses = 0
        L1I_total_cache_misses = 0
        L1I_total_cache_pending_hits = 0
        L1I_total_cache_reservation_fails = 0
L1D_cache:
        L1D_cache_core[0]: Access = 4900, Miss = 2000, Miss_rate = 0.408, Pending_hits = 600, Reservation_fails = 2277
        L1D_cache_core[1]: Access = 5096, Miss = 2080, Miss_rate = 0.408, Pending_hits = 622, Reservation_fails = 2043
        L1D_cache_core[2]: Access = 5096, Miss = 2078, Miss_rate = 0.408, Pending_hits = 626, Reservation_fails = 1655
        L1D_cache_core[3]: Access = 5194, Miss = 2120, Miss_rate = 0.408, Pending_hits = 636, Reservation_fails = 2018
        L1D_cache_core[4]: Access = 4998, Miss = 2040, Miss_rate = 0.408, Pending_hits = 612, Reservation_fails = 2159
        L1D_cache_core[5]: Access = 5194, Miss = 2120, Miss_rate = 0.408, Pending_hits = 636, Reservation_fails = 2258
        L1D_cache_core[6]: Access = 4900, Miss = 1994, Miss_rate = 0.407, Pending_hits = 606, Reservation_fails = 2261
        L1D_cache_core[7]: Access = 5096, Miss = 2078, Miss_rate = 0.408, Pending_hits = 624, Reservation_fails = 2447
        L1D_cache_core[8]: Access = 4998, Miss = 2038, Miss_rate = 0.408, Pending_hits = 614, Reservation_fails = 2157
        L1D_cache_core[9]: Access = 4900, Miss = 1998, Miss_rate = 0.408, Pending_hits = 602, Reservation_fails = 2690
        L1D_cache_core[10]: Access = 4998, Miss = 2040, Miss_rate = 0.408, Pending_hits = 611, Reservation_fails = 1793
        L1D_cache_core[11]: Access = 5194, Miss = 2120, Miss_rate = 0.408, Pending_hits = 636, Reservation_fails = 1950
        L1D_cache_core[12]: Access = 4802, Miss = 1960, Miss_rate = 0.408, Pending_hits = 588, Reservation_fails = 1998
        L1D_cache_core[13]: Access = 4900, Miss = 1992, Miss_rate = 0.407, Pending_hits = 608, Reservation_fails = 2257
        L1D_cache_core[14]: Access = 4998, Miss = 2036, Miss_rate = 0.407, Pending_hits = 616, Reservation_fails = 2004
        L1D_cache_core[15]: Access = 5292, Miss = 2160, Miss_rate = 0.408, Pending_hits = 648, Reservation_fails = 1727
        L1D_cache_core[16]: Access = 4998, Miss = 2040, Miss_rate = 0.408, Pending_hits = 611, Reservation_fails = 1687
        L1D_cache_core[17]: Access = 5096, Miss = 2080, Miss_rate = 0.408, Pending_hits = 623, Reservation_fails = 2260
        L1D_cache_core[18]: Access = 4900, Miss = 1998, Miss_rate = 0.408, Pending_hits = 602, Reservation_fails = 2451
        L1D_cache_core[19]: Access = 5194, Miss = 2118, Miss_rate = 0.408, Pending_hits = 638, Reservation_fails = 1888
        L1D_cache_core[20]: Access = 5096, Miss = 2080, Miss_rate = 0.408, Pending_hits = 622, Reservation_fails = 2063
        L1D_cache_core[21]: Access = 5390, Miss = 2198, Miss_rate = 0.408, Pending_hits = 662, Reservation_fails = 2069
        L1D_cache_core[22]: Access = 4802, Miss = 1954, Miss_rate = 0.407, Pending_hits = 593, Reservation_fails = 2677
        L1D_cache_core[23]: Access = 5292, Miss = 2156, Miss_rate = 0.407, Pending_hits = 652, Reservation_fails = 1723
        L1D_cache_core[24]: Access = 5194, Miss = 2120, Miss_rate = 0.408, Pending_hits = 635, Reservation_fails = 2239
        L1D_cache_core[25]: Access = 5194, Miss = 2120, Miss_rate = 0.408, Pending_hits = 636, Reservation_fails = 1620
        L1D_cache_core[26]: Access = 4900, Miss = 1998, Miss_rate = 0.408, Pending_hits = 602, Reservation_fails = 2006
        L1D_cache_core[27]: Access = 4900, Miss = 1998, Miss_rate = 0.408, Pending_hits = 602, Reservation_fails = 1544
        L1D_cache_core[28]: Access = 4802, Miss = 1958, Miss_rate = 0.408, Pending_hits = 587, Reservation_fails = 2444
        L1D_cache_core[29]: Access = 4900, Miss = 2000, Miss_rate = 0.408, Pending_hits = 600, Reservation_fails = 2184
        L1D_cache_core[30]: Access = 4900, Miss = 1998, Miss_rate = 0.408, Pending_hits = 602, Reservation_fails = 2095
        L1D_cache_core[31]: Access = 4900, Miss = 1994, Miss_rate = 0.407, Pending_hits = 606, Reservation_fails = 2109
        L1D_cache_core[32]: Access = 5194, Miss = 2120, Miss_rate = 0.408, Pending_hits = 636, Reservation_fails = 2598
        L1D_cache_core[33]: Access = 5194, Miss = 2116, Miss_rate = 0.407, Pending_hits = 640, Reservation_fails = 1801
        L1D_cache_core[34]: Access = 5194, Miss = 2114, Miss_rate = 0.407, Pending_hits = 641, Reservation_fails = 2119
        L1D_cache_core[35]: Access = 4802, Miss = 1952, Miss_rate = 0.406, Pending_hits = 596, Reservation_fails = 2783
        L1D_cache_core[36]: Access = 5096, Miss = 2080, Miss_rate = 0.408, Pending_hits = 622, Reservation_fails = 2167
        L1D_cache_core[37]: Access = 5292, Miss = 2156, Miss_rate = 0.407, Pending_hits = 651, Reservation_fails = 1801
        L1D_cache_core[38]: Access = 5096, Miss = 2078, Miss_rate = 0.408, Pending_hits = 626, Reservation_fails = 2054
        L1D_cache_core[39]: Access = 4998, Miss = 2040, Miss_rate = 0.408, Pending_hits = 611, Reservation_fails = 2138
        L1D_cache_core[40]: Access = 5194, Miss = 2120, Miss_rate = 0.408, Pending_hits = 636, Reservation_fails = 1699
        L1D_cache_core[41]: Access = 4900, Miss = 1996, Miss_rate = 0.407, Pending_hits = 603, Reservation_fails = 2208
        L1D_cache_core[42]: Access = 5194, Miss = 2120, Miss_rate = 0.408, Pending_hits = 636, Reservation_fails = 2485
        L1D_cache_core[43]: Access = 4998, Miss = 2040, Miss_rate = 0.408, Pending_hits = 612, Reservation_fails = 1843
        L1D_cache_core[44]: Access = 5096, Miss = 2078, Miss_rate = 0.408, Pending_hits = 626, Reservation_fails = 1864
        L1D_cache_core[45]: Access = 4998, Miss = 2038, Miss_rate = 0.408, Pending_hits = 612, Reservation_fails = 2140
        L1D_cache_core[46]: Access = 4998, Miss = 2034, Miss_rate = 0.407, Pending_hits = 617, Reservation_fails = 2352
        L1D_cache_core[47]: Access = 4998, Miss = 2036, Miss_rate = 0.407, Pending_hits = 616, Reservation_fails = 2226
        L1D_cache_core[48]: Access = 5096, Miss = 2078, Miss_rate = 0.408, Pending_hits = 626, Reservation_fails = 2246
        L1D_cache_core[49]: Access = 4900, Miss = 2000, Miss_rate = 0.408, Pending_hits = 598, Reservation_fails = 1841
        L1D_cache_core[50]: Access = 5096, Miss = 2076, Miss_rate = 0.407, Pending_hits = 628, Reservation_fails = 1944
        L1D_cache_core[51]: Access = 4704, Miss = 1914, Miss_rate = 0.407, Pending_hits = 582, Reservation_fails = 2573
        L1D_cache_core[52]: Access = 4998, Miss = 2040, Miss_rate = 0.408, Pending_hits = 612, Reservation_fails = 1895
        L1D_cache_core[53]: Access = 4802, Miss = 1958, Miss_rate = 0.408, Pending_hits = 589, Reservation_fails = 2079
        L1D_cache_core[54]: Access = 4900, Miss = 2000, Miss_rate = 0.408, Pending_hits = 600, Reservation_fails = 2371
        L1D_cache_core[55]: Access = 4998, Miss = 2040, Miss_rate = 0.408, Pending_hits = 612, Reservation_fails = 2120
        L1D_cache_core[56]: Access = 5194, Miss = 2118, Miss_rate = 0.408, Pending_hits = 638, Reservation_fails = 2555
        L1D_cache_core[57]: Access = 5194, Miss = 2120, Miss_rate = 0.408, Pending_hits = 635, Reservation_fails = 1720
        L1D_cache_core[58]: Access = 4998, Miss = 2040, Miss_rate = 0.408, Pending_hits = 612, Reservation_fails = 1477
        L1D_cache_core[59]: Access = 4998, Miss = 2034, Miss_rate = 0.407, Pending_hits = 617, Reservation_fails = 2453
        L1D_cache_core[60]: Access = 4998, Miss = 2040, Miss_rate = 0.408, Pending_hits = 610, Reservation_fails = 2142
        L1D_cache_core[61]: Access = 4900, Miss = 2000, Miss_rate = 0.408, Pending_hits = 598, Reservation_fails = 2304
        L1D_cache_core[62]: Access = 4998, Miss = 2040, Miss_rate = 0.408, Pending_hits = 612, Reservation_fails = 1965
        L1D_cache_core[63]: Access = 4802, Miss = 1950, Miss_rate = 0.406, Pending_hits = 596, Reservation_fails = 2616
        L1D_cache_core[64]: Access = 4998, Miss = 2040, Miss_rate = 0.408, Pending_hits = 611, Reservation_fails = 2102
        L1D_cache_core[65]: Access = 4900, Miss = 2000, Miss_rate = 0.408, Pending_hits = 599, Reservation_fails = 2128
        L1D_cache_core[66]: Access = 4802, Miss = 1958, Miss_rate = 0.408, Pending_hits = 590, Reservation_fails = 1865
        L1D_cache_core[67]: Access = 5194, Miss = 2120, Miss_rate = 0.408, Pending_hits = 636, Reservation_fails = 1827
        L1D_cache_core[68]: Access = 4900, Miss = 2000, Miss_rate = 0.408, Pending_hits = 600, Reservation_fails = 1965
        L1D_cache_core[69]: Access = 4704, Miss = 1920, Miss_rate = 0.408, Pending_hits = 573, Reservation_fails = 2584
        L1D_cache_core[70]: Access = 5096, Miss = 2080, Miss_rate = 0.408, Pending_hits = 624, Reservation_fails = 1792
        L1D_cache_core[71]: Access = 5390, Miss = 2200, Miss_rate = 0.408, Pending_hits = 660, Reservation_fails = 1810
        L1D_cache_core[72]: Access = 4998, Miss = 2040, Miss_rate = 0.408, Pending_hits = 612, Reservation_fails = 1968
        L1D_cache_core[73]: Access = 4802, Miss = 1956, Miss_rate = 0.407, Pending_hits = 591, Reservation_fails = 2189
        L1D_cache_core[74]: Access = 5194, Miss = 2120, Miss_rate = 0.408, Pending_hits = 636, Reservation_fails = 1627
        L1D_cache_core[75]: Access = 4802, Miss = 1954, Miss_rate = 0.407, Pending_hits = 594, Reservation_fails = 2305
        L1D_cache_core[76]: Access = 5096, Miss = 2078, Miss_rate = 0.408, Pending_hits = 626, Reservation_fails = 2183
        L1D_cache_core[77]: Access = 4802, Miss = 1960, Miss_rate = 0.408, Pending_hits = 586, Reservation_fails = 2248
        L1D_cache_core[78]: Access = 5096, Miss = 2080, Miss_rate = 0.408, Pending_hits = 624, Reservation_fails = 2102
        L1D_cache_core[79]: Access = 4802, Miss = 1960, Miss_rate = 0.408, Pending_hits = 588, Reservation_fails = 2031
        L1D_total_cache_accesses = 401408
        L1D_total_cache_misses = 163696
        L1D_total_cache_miss_rate = 0.4078
        L1D_total_cache_pending_hits = 49254
        L1D_total_cache_reservation_fails = 168058
        L1D_cache_data_port_util = 0.131
        L1D_cache_fill_port_util = 0.108
L1C_cache:
        L1C_total_cache_accesses = 0
        L1C_total_cache_misses = 0
        L1C_total_cache_pending_hits = 0
        L1C_total_cache_reservation_fails = 0
L1T_cache:
        L1T_total_cache_accesses = 0
        L1T_total_cache_misses = 0
        L1T_total_cache_pending_hits = 0
        L1T_total_cache_reservation_fails = 0

Total_core_cache_stats:
        Total_core_cache_stats_breakdown[GLOBAL_ACC_R][HIT] = 42
        Total_core_cache_stats_breakdown[GLOBAL_ACC_R][HIT_RESERVED] = 49254
        Total_core_cache_stats_breakdown[GLOBAL_ACC_R][MISS] = 44874
        Total_core_cache_stats_breakdown[GLOBAL_ACC_R][RESERVATION_FAIL] = 71482
        Total_core_cache_stats_breakdown[GLOBAL_ACC_R][SECTOR_MISS] = 110630
        Total_core_cache_stats_breakdown[GLOBAL_ACC_R][MSHR_HIT] = 49254
        Total_core_cache_stats_breakdown[LOCAL_ACC_R][HIT] = 0
        Total_core_cache_stats_breakdown[LOCAL_ACC_R][HIT_RESERVED] = 0
        Total_core_cache_stats_breakdown[LOCAL_ACC_R][MISS] = 0
        Total_core_cache_stats_breakdown[LOCAL_ACC_R][RESERVATION_FAIL] = 0
        Total_core_cache_stats_breakdown[LOCAL_ACC_R][SECTOR_MISS] = 0
        Total_core_cache_stats_breakdown[LOCAL_ACC_R][MSHR_HIT] = 0
        Total_core_cache_stats_breakdown[CONST_ACC_R][HIT] = 0
        Total_core_cache_stats_breakdown[CONST_ACC_R][HIT_RESERVED] = 0
        Total_core_cache_stats_breakdown[CONST_ACC_R][MISS] = 0
        Total_core_cache_stats_breakdown[CONST_ACC_R][RESERVATION_FAIL] = 0
        Total_core_cache_stats_breakdown[CONST_ACC_R][SECTOR_MISS] = 0
        Total_core_cache_stats_breakdown[CONST_ACC_R][MSHR_HIT] = 0
        Total_core_cache_stats_breakdown[TEXTURE_ACC_R][HIT] = 0
        Total_core_cache_stats_breakdown[TEXTURE_ACC_R][HIT_RESERVED] = 0
        Total_core_cache_stats_breakdown[TEXTURE_ACC_R][MISS] = 0
        Total_core_cache_stats_breakdown[TEXTURE_ACC_R][RESERVATION_FAIL] = 0
        Total_core_cache_stats_breakdown[TEXTURE_ACC_R][SECTOR_MISS] = 0
        Total_core_cache_stats_breakdown[TEXTURE_ACC_R][MSHR_HIT] = 0
        Total_core_cache_stats_breakdown[GLOBAL_ACC_W][HIT] = 188416
        Total_core_cache_stats_breakdown[GLOBAL_ACC_W][HIT_RESERVED] = 0
        Total_core_cache_stats_breakdown[GLOBAL_ACC_W][MISS] = 4054
        Total_core_cache_stats_breakdown[GLOBAL_ACC_W][RESERVATION_FAIL] = 96576
        Total_core_cache_stats_breakdown[GLOBAL_ACC_W][SECTOR_MISS] = 4138
        Total_core_cache_stats_breakdown[GLOBAL_ACC_W][MSHR_HIT] = 0
        Total_core_cache_stats_breakdown[LOCAL_ACC_W][HIT] = 0
        Total_core_cache_stats_breakdown[LOCAL_ACC_W][HIT_RESERVED] = 0
        Total_core_cache_stats_breakdown[LOCAL_ACC_W][MISS] = 0
        Total_core_cache_stats_breakdown[LOCAL_ACC_W][RESERVATION_FAIL] = 0
        Total_core_cache_stats_breakdown[LOCAL_ACC_W][SECTOR_MISS] = 0
        Total_core_cache_stats_breakdown[LOCAL_ACC_W][MSHR_HIT] = 0
        Total_core_cache_stats_breakdown[L1_WRBK_ACC][HIT] = 0
        Total_core_cache_stats_breakdown[L1_WRBK_ACC][HIT_RESERVED] = 0
        Total_core_cache_stats_breakdown[L1_WRBK_ACC][MISS] = 0
        Total_core_cache_stats_breakdown[L1_WRBK_ACC][RESERVATION_FAIL] = 0
        Total_core_cache_stats_breakdown[L1_WRBK_ACC][SECTOR_MISS] = 0
        Total_core_cache_stats_breakdown[L1_WRBK_ACC][MSHR_HIT] = 0
        Total_core_cache_stats_breakdown[L2_WRBK_ACC][HIT] = 0
        Total_core_cache_stats_breakdown[L2_WRBK_ACC][HIT_RESERVED] = 0
        Total_core_cache_stats_breakdown[L2_WRBK_ACC][MISS] = 0
        Total_core_cache_stats_breakdown[L2_WRBK_ACC][RESERVATION_FAIL] = 0
        Total_core_cache_stats_breakdown[L2_WRBK_ACC][SECTOR_MISS] = 0
        Total_core_cache_stats_breakdown[L2_WRBK_ACC][MSHR_HIT] = 0
        Total_core_cache_stats_breakdown[INST_ACC_R][HIT] = 0
        Total_core_cache_stats_breakdown[INST_ACC_R][HIT_RESERVED] = 0
        Total_core_cache_stats_breakdown[INST_ACC_R][MISS] = 0
        Total_core_cache_stats_breakdown[INST_ACC_R][RESERVATION_FAIL] = 0
        Total_core_cache_stats_breakdown[INST_ACC_R][SECTOR_MISS] = 0
        Total_core_cache_stats_breakdown[INST_ACC_R][MSHR_HIT] = 0
        Total_core_cache_stats_breakdown[L1_WR_ALLOC_R][HIT] = 0
        Total_core_cache_stats_breakdown[L1_WR_ALLOC_R][HIT_RESERVED] = 0
        Total_core_cache_stats_breakdown[L1_WR_ALLOC_R][MISS] = 0
        Total_core_cache_stats_breakdown[L1_WR_ALLOC_R][RESERVATION_FAIL] = 0
        Total_core_cache_stats_breakdown[L1_WR_ALLOC_R][SECTOR_MISS] = 0
        Total_core_cache_stats_breakdown[L1_WR_ALLOC_R][MSHR_HIT] = 0
        Total_core_cache_stats_breakdown[L2_WR_ALLOC_R][HIT] = 0
        Total_core_cache_stats_breakdown[L2_WR_ALLOC_R][HIT_RESERVED] = 0
        Total_core_cache_stats_breakdown[L2_WR_ALLOC_R][MISS] = 0
        Total_core_cache_stats_breakdown[L2_WR_ALLOC_R][RESERVATION_FAIL] = 0
        Total_core_cache_stats_breakdown[L2_WR_ALLOC_R][SECTOR_MISS] = 0
        Total_core_cache_stats_breakdown[L2_WR_ALLOC_R][MSHR_HIT] = 0
        Total_core_cache_stats_breakdown[GLOBAL_ACC_R][TOTAL_ACCESS] = 204800
        Total_core_cache_stats_breakdown[GLOBAL_ACC_W][TOTAL_ACCESS] = 196608

Total_core_cache_fail_stats:
        Total_core_cache_fail_stats_breakdown[GLOBAL_ACC_R][MISS_QUEUE_FULL] = 71482
        Total_core_cache_fail_stats_breakdown[GLOBAL_ACC_W][MISS_QUEUE_FULL] = 96576
ctas_completed 4096, Shader 0 warp_id issue ditsribution:
warp_id:
0, 1, 2, 3, 4, 5, 6, 7, 8, 9, 10, 11, 12, 13, 14, 15, 16, 17, 18, 19, 20, 21, 22, 23, 24, 25, 26, 27, 28, 29, 30, 31, 32, 33, 34, 35, 36, 37, 38, 39, 40, 41, 42, 43, 44, 45, 46, 47, 48, 49, 50, 51, 52, 53, 54, 55, 56, 57, 58, 59, 60, 61, 62, 63,
distro:
770, 602, 658, 602, 714, 602, 658, 602, 660, 516, 564, 516, 612, 516, 564, 516, 660, 516, 564, 516, 612, 516, 564, 516, 770, 602, 658, 602, 714, 602, 658, 602, 660, 516, 564, 516, 612, 516, 564, 516, 660, 516, 564, 516, 612, 516, 564, 516, 660, 516, 564, 516, 612, 516, 564, 516, 660, 516, 564, 516, 612, 516, 564, 516,
gpgpu_n_tot_thrd_icount = 74776576
gpgpu_n_tot_w_icount = 3047424
gpgpu_n_stall_shd_mem = 73652
gpgpu_n_mem_read_local = 0
gpgpu_n_mem_write_local = 0
gpgpu_n_mem_read_global = 155504
gpgpu_n_mem_write_global = 196608
gpgpu_n_mem_texture = 0
gpgpu_n_mem_const = 0
gpgpu_n_load_insn  = 1114112
gpgpu_n_store_insn = 1114112
gpgpu_n_shmem_insn = 8323072
gpgpu_n_sstarr_insn = 0
gpgpu_n_tex_insn = 0
gpgpu_n_const_mem_insn = 0
gpgpu_n_param_mem_insn = 4194304
gpgpu_n_shmem_bkconflict = 0
gpgpu_n_l1cache_bkconflict = 8360
gpgpu_n_intrawarp_mshr_merge = 0
gpgpu_n_cmem_portconflict = 0
gpgpu_stall_shd_mem[c_mem][resource_stall] = 0
gpgpu_stall_shd_mem[s_mem][bk_conf] = 0
gpgpu_stall_shd_mem[gl_mem][resource_stall] = 8360
gpgpu_stall_shd_mem[gl_mem][coal_stall] = 65292
gpgpu_stall_shd_mem[gl_mem][data_port_stall] = 0
gpu_reg_bank_conflict_stalls = 0
Warp Occupancy Distribution:
Stall:1199650   W0_Idle:86580   W0_Scoreboard:1421126   W1:0    W2:458752       W3:0    W4:0    W5:0    W6:0    W7:0    W8:0    W9:0    W10:0   W11:0   W12:0   W13:0   W14:0 W15:0    W16:491520      W17:0   W18:0   W19:0   W20:0   W21:0   W22:0   W23:0   W24:0   W25:0   W26:0   W27:0   W28:0   W29:0   W30:0   W31:0   W32:2097152
single_issue_nums: WS0:868352   WS1:704512      WS2:770048      WS3:704512
dual_issue_nums: WS0:0  WS1:0   WS2:0   WS3:0
traffic_breakdown_coretomem[GLOBAL_ACC_R] = 1244032 {8:155504,}
traffic_breakdown_coretomem[GLOBAL_ACC_W] = 7864320 {40:196608,}
traffic_breakdown_memtocore[GLOBAL_ACC_R] = 6220160 {40:155504,}
traffic_breakdown_memtocore[GLOBAL_ACC_W] = 1572864 {8:196608,}
maxmflatency = 498
max_icnt2mem_latency = 328
maxmrqlatency = 0
max_icnt2sh_latency = 98
averagemflatency = 220
avg_icnt2mem_latency = 51
avg_icnt2sh_latency = 6
mrq_lat_table:0         0       0       0       0       0       0       0       0       0       0       0       0       0       0       0       0       0       0       0     0        0       0       0       0       0       0       0       0       0       0       0
dq_lat_table:0  0       0       0       0       0       0       0       0       0       0       0       0       0       0       0       0       0       0       0       0     0        0       0       0       0       0       0       0       0       0       0
mf_lat_table:0  0       0       0       0       0       0       309313  42799   0       0       0       0       0       0       0       0       0       0       0       0     0        0       0       0       0       0       0       0       0       0       0
icnt2mem_lat_table:0    0       0       0       104566  171382  60775   14849   540     0       0       0       0       0       0       0       0       0       0       0     0        0       0       0
icnt2sh_lat_table:0     175550  84996   54991   28530   7425    620     0       0       0       0       0       0       0       0       0       0       0       0       0     0        0       0       0
mf_lat_pw_table:0       0       0       0       0       0       0       32      3       0       0       0       0       0       0       0       0       0       0       0     0        0       0       0       0       0       0       0       0       0       0       0
maximum concurrent accesses to same row:
dram[0]:         0         0         0         0         0         0         0         0         0         0         0         0         0         0         0         0
dram[1]:         0         0         0         0         0         0         0         0         0         0         0         0         0         0         0         0
dram[2]:         0         0         0         0         0         0         0         0         0         0         0         0         0         0         0         0
dram[3]:         0         0         0         0         0         0         0         0         0         0         0         0         0         0         0         0
dram[4]:         0         0         0         0         0         0         0         0         0         0         0         0         0         0         0         0
dram[5]:         0         0         0         0         0         0         0         0         0         0         0         0         0         0         0         0
dram[6]:         0         0         0         0         0         0         0         0         0         0         0         0         0         0         0         0
dram[7]:         0         0         0         0         0         0         0         0         0         0         0         0         0         0         0         0
dram[8]:         0         0         0         0         0         0         0         0         0         0         0         0         0         0         0         0
dram[9]:         0         0         0         0         0         0         0         0         0         0         0         0         0         0         0         0
dram[10]:         0         0         0         0         0         0         0         0         0         0         0         0         0         0         0         0
dram[11]:         0         0         0         0         0         0         0         0         0         0         0         0         0         0         0         0
dram[12]:         0         0         0         0         0         0         0         0         0         0         0         0         0         0         0         0
dram[13]:         0         0         0         0         0         0         0         0         0         0         0         0         0         0         0         0
dram[14]:         0         0         0         0         0         0         0         0         0         0         0         0         0         0         0         0
dram[15]:         0         0         0         0         0         0         0         0         0         0         0         0         0         0         0         0
dram[16]:         0         0         0         0         0         0         0         0         0         0         0         0         0         0         0         0
dram[17]:         0         0         0         0         0         0         0         0         0         0         0         0         0         0         0         0
dram[18]:         0         0         0         0         0         0         0         0         0         0         0         0         0         0         0         0
dram[19]:         0         0         0         0         0         0         0         0         0         0         0         0         0         0         0         0
dram[20]:         0         0         0         0         0         0         0         0         0         0         0         0         0         0         0         0
dram[21]:         0         0         0         0         0         0         0         0         0         0         0         0         0         0         0         0
dram[22]:         0         0         0         0         0         0         0         0         0         0         0         0         0         0         0         0
dram[23]:         0         0         0         0         0         0         0         0         0         0         0         0         0         0         0         0
dram[24]:         0         0         0         0         0         0         0         0         0         0         0         0         0         0         0         0
dram[25]:         0         0         0         0         0         0         0         0         0         0         0         0         0         0         0         0
dram[26]:         0         0         0         0         0         0         0         0         0         0         0         0         0         0         0         0
dram[27]:         0         0         0         0         0         0         0         0         0         0         0         0         0         0         0         0
dram[28]:         0         0         0         0         0         0         0         0         0         0         0         0         0         0         0         0
dram[29]:         0         0         0         0         0         0         0         0         0         0         0         0         0         0         0         0
dram[30]:         0         0         0         0         0         0         0         0         0         0         0         0         0         0         0         0
dram[31]:         0         0         0         0         0         0         0         0         0         0         0         0         0         0         0         0
maximum service time to same row:
dram[0]:         0         0         0         0         0         0         0         0         0         0         0         0         0         0         0         0
dram[1]:         0         0         0         0         0         0         0         0         0         0         0         0         0         0         0         0
dram[2]:         0         0         0         0         0         0         0         0         0         0         0         0         0         0         0         0
dram[3]:         0         0         0         0         0         0         0         0         0         0         0         0         0         0         0         0
dram[4]:         0         0         0         0         0         0         0         0         0         0         0         0         0         0         0         0
dram[5]:         0         0         0         0         0         0         0         0         0         0         0         0         0         0         0         0
dram[6]:         0         0         0         0         0         0         0         0         0         0         0         0         0         0         0         0
dram[7]:         0         0         0         0         0         0         0         0         0         0         0         0         0         0         0         0
dram[8]:         0         0         0         0         0         0         0         0         0         0         0         0         0         0         0         0
dram[9]:         0         0         0         0         0         0         0         0         0         0         0         0         0         0         0         0
dram[10]:         0         0         0         0         0         0         0         0         0         0         0         0         0         0         0         0
dram[11]:         0         0         0         0         0         0         0         0         0         0         0         0         0         0         0         0
dram[12]:         0         0         0         0         0         0         0         0         0         0         0         0         0         0         0         0
dram[13]:         0         0         0         0         0         0         0         0         0         0         0         0         0         0         0         0
dram[14]:         0         0         0         0         0         0         0         0         0         0         0         0         0         0         0         0
dram[15]:         0         0         0         0         0         0         0         0         0         0         0         0         0         0         0         0
dram[16]:         0         0         0         0         0         0         0         0         0         0         0         0         0         0         0         0
dram[17]:         0         0         0         0         0         0         0         0         0         0         0         0         0         0         0         0
dram[18]:         0         0         0         0         0         0         0         0         0         0         0         0         0         0         0         0
dram[19]:         0         0         0         0         0         0         0         0         0         0         0         0         0         0         0         0
dram[20]:         0         0         0         0         0         0         0         0         0         0         0         0         0         0         0         0
dram[21]:         0         0         0         0         0         0         0         0         0         0         0         0         0         0         0         0
dram[22]:         0         0         0         0         0         0         0         0         0         0         0         0         0         0         0         0
dram[23]:         0         0         0         0         0         0         0         0         0         0         0         0         0         0         0         0
dram[24]:         0         0         0         0         0         0         0         0         0         0         0         0         0         0         0         0
dram[25]:         0         0         0         0         0         0         0         0         0         0         0         0         0         0         0         0
dram[26]:         0         0         0         0         0         0         0         0         0         0         0         0         0         0         0         0
dram[27]:         0         0         0         0         0         0         0         0         0         0         0         0         0         0         0         0
dram[28]:         0         0         0         0         0         0         0         0         0         0         0         0         0         0         0         0
dram[29]:         0         0         0         0         0         0         0         0         0         0         0         0         0         0         0         0
dram[30]:         0         0         0         0         0         0         0         0         0         0         0         0         0         0         0         0
dram[31]:         0         0         0         0         0         0         0         0         0         0         0         0         0         0         0         0
average row accesses per activate:
dram[0]:      -nan      -nan      -nan      -nan      -nan      -nan      -nan      -nan      -nan      -nan      -nan      -nan      -nan      -nan      -nan      -nan
dram[1]:      -nan      -nan      -nan      -nan      -nan      -nan      -nan      -nan      -nan      -nan      -nan      -nan      -nan      -nan      -nan      -nan
dram[2]:      -nan      -nan      -nan      -nan      -nan      -nan      -nan      -nan      -nan      -nan      -nan      -nan      -nan      -nan      -nan      -nan
dram[3]:      -nan      -nan      -nan      -nan      -nan      -nan      -nan      -nan      -nan      -nan      -nan      -nan      -nan      -nan      -nan      -nan
dram[4]:      -nan      -nan      -nan      -nan      -nan      -nan      -nan      -nan      -nan      -nan      -nan      -nan      -nan      -nan      -nan      -nan
dram[5]:      -nan      -nan      -nan      -nan      -nan      -nan      -nan      -nan      -nan      -nan      -nan      -nan      -nan      -nan      -nan      -nan
dram[6]:      -nan      -nan      -nan      -nan      -nan      -nan      -nan      -nan      -nan      -nan      -nan      -nan      -nan      -nan      -nan      -nan
dram[7]:      -nan      -nan      -nan      -nan      -nan      -nan      -nan      -nan      -nan      -nan      -nan      -nan      -nan      -nan      -nan      -nan
dram[8]:      -nan      -nan      -nan      -nan      -nan      -nan      -nan      -nan      -nan      -nan      -nan      -nan      -nan      -nan      -nan      -nan
dram[9]:      -nan      -nan      -nan      -nan      -nan      -nan      -nan      -nan      -nan      -nan      -nan      -nan      -nan      -nan      -nan      -nan
dram[10]:      -nan      -nan      -nan      -nan      -nan      -nan      -nan      -nan      -nan      -nan      -nan      -nan      -nan      -nan      -nan      -nan
dram[11]:      -nan      -nan      -nan      -nan      -nan      -nan      -nan      -nan      -nan      -nan      -nan      -nan      -nan      -nan      -nan      -nan
dram[12]:      -nan      -nan      -nan      -nan      -nan      -nan      -nan      -nan      -nan      -nan      -nan      -nan      -nan      -nan      -nan      -nan
dram[13]:      -nan      -nan      -nan      -nan      -nan      -nan      -nan      -nan      -nan      -nan      -nan      -nan      -nan      -nan      -nan      -nan
dram[14]:      -nan      -nan      -nan      -nan      -nan      -nan      -nan      -nan      -nan      -nan      -nan      -nan      -nan      -nan      -nan      -nan
dram[15]:      -nan      -nan      -nan      -nan      -nan      -nan      -nan      -nan      -nan      -nan      -nan      -nan      -nan      -nan      -nan      -nan
dram[16]:      -nan      -nan      -nan      -nan      -nan      -nan      -nan      -nan      -nan      -nan      -nan      -nan      -nan      -nan      -nan      -nan
dram[17]:      -nan      -nan      -nan      -nan      -nan      -nan      -nan      -nan      -nan      -nan      -nan      -nan      -nan      -nan      -nan      -nan
dram[18]:      -nan      -nan      -nan      -nan      -nan      -nan      -nan      -nan      -nan      -nan      -nan      -nan      -nan      -nan      -nan      -nan
dram[19]:      -nan      -nan      -nan      -nan      -nan      -nan      -nan      -nan      -nan      -nan      -nan      -nan      -nan      -nan      -nan      -nan
dram[20]:      -nan      -nan      -nan      -nan      -nan      -nan      -nan      -nan      -nan      -nan      -nan      -nan      -nan      -nan      -nan      -nan
dram[21]:      -nan      -nan      -nan      -nan      -nan      -nan      -nan      -nan      -nan      -nan      -nan      -nan      -nan      -nan      -nan      -nan
dram[22]:      -nan      -nan      -nan      -nan      -nan      -nan      -nan      -nan      -nan      -nan      -nan      -nan      -nan      -nan      -nan      -nan
dram[23]:      -nan      -nan      -nan      -nan      -nan      -nan      -nan      -nan      -nan      -nan      -nan      -nan      -nan      -nan      -nan      -nan
dram[24]:      -nan      -nan      -nan      -nan      -nan      -nan      -nan      -nan      -nan      -nan      -nan      -nan      -nan      -nan      -nan      -nan
dram[25]:      -nan      -nan      -nan      -nan      -nan      -nan      -nan      -nan      -nan      -nan      -nan      -nan      -nan      -nan      -nan      -nan
dram[26]:      -nan      -nan      -nan      -nan      -nan      -nan      -nan      -nan      -nan      -nan      -nan      -nan      -nan      -nan      -nan      -nan
dram[27]:      -nan      -nan      -nan      -nan      -nan      -nan      -nan      -nan      -nan      -nan      -nan      -nan      -nan      -nan      -nan      -nan
dram[28]:      -nan      -nan      -nan      -nan      -nan      -nan      -nan      -nan      -nan      -nan      -nan      -nan      -nan      -nan      -nan      -nan
dram[29]:      -nan      -nan      -nan      -nan      -nan      -nan      -nan      -nan      -nan      -nan      -nan      -nan      -nan      -nan      -nan      -nan
dram[30]:      -nan      -nan      -nan      -nan      -nan      -nan      -nan      -nan      -nan      -nan      -nan      -nan      -nan      -nan      -nan      -nan
dram[31]:      -nan      -nan      -nan      -nan      -nan      -nan      -nan      -nan      -nan      -nan      -nan      -nan      -nan      -nan      -nan      -nan
average row locality = 0/0 = -nan
number of total memory accesses made:
dram[0]:         0         0         0         0         0         0         0         0         0         0         0         0         0         0         0         0
dram[1]:         0         0         0         0         0         0         0         0         0         0         0         0         0         0         0         0
dram[2]:         0         0         0         0         0         0         0         0         0         0         0         0         0         0         0         0
dram[3]:         0         0         0         0         0         0         0         0         0         0         0         0         0         0         0         0
dram[4]:         0         0         0         0         0         0         0         0         0         0         0         0         0         0         0         0
dram[5]:         0         0         0         0         0         0         0         0         0         0         0         0         0         0         0         0
dram[6]:         0         0         0         0         0         0         0         0         0         0         0         0         0         0         0         0
dram[7]:         0         0         0         0         0         0         0         0         0         0         0         0         0         0         0         0
dram[8]:         0         0         0         0         0         0         0         0         0         0         0         0         0         0         0         0
dram[9]:         0         0         0         0         0         0         0         0         0         0         0         0         0         0         0         0
dram[10]:         0         0         0         0         0         0         0         0         0         0         0         0         0         0         0         0
dram[11]:         0         0         0         0         0         0         0         0         0         0         0         0         0         0         0         0
dram[12]:         0         0         0         0         0         0         0         0         0         0         0         0         0         0         0         0
dram[13]:         0         0         0         0         0         0         0         0         0         0         0         0         0         0         0         0
dram[14]:         0         0         0         0         0         0         0         0         0         0         0         0         0         0         0         0
dram[15]:         0         0         0         0         0         0         0         0         0         0         0         0         0         0         0         0
dram[16]:         0         0         0         0         0         0         0         0         0         0         0         0         0         0         0         0
dram[17]:         0         0         0         0         0         0         0         0         0         0         0         0         0         0         0         0
dram[18]:         0         0         0         0         0         0         0         0         0         0         0         0         0         0         0         0
dram[19]:         0         0         0         0         0         0         0         0         0         0         0         0         0         0         0         0
dram[20]:         0         0         0         0         0         0         0         0         0         0         0         0         0         0         0         0
dram[21]:         0         0         0         0         0         0         0         0         0         0         0         0         0         0         0         0
dram[22]:         0         0         0         0         0         0         0         0         0         0         0         0         0         0         0         0
dram[23]:         0         0         0         0         0         0         0         0         0         0         0         0         0         0         0         0
dram[24]:         0         0         0         0         0         0         0         0         0         0         0         0         0         0         0         0
[...]
Bank_Level_Parallism_Ready = 2.558710
write_to_read_ratio_blp_rw_average = 0.368037
GrpLevelPara = 3.043474

BW Util details:
bwutil = 0.320747
total_CMD = 31411
util_bw = 10075
Wasted_Col = 1486
Wasted_Row = 128
Idle = 19722

BW Util Bottlenecks:
RCDc_limit = 486
RCDWRc_limit = 166
WTRc_limit = 1176
RTWc_limit = 4664
CCDLc_limit = 1906
rwq = 0
CCDLc_limit_alone = 1199
WTRc_limit_alone = 1023
RTWc_limit_alone = 4110

Commands details:
total_CMD = 31411
n_nop = 21224
Read = 7359
Write = 0
L2_Alloc = 0
L2_WB = 2716
n_act = 327
n_pre = 311
n_ref = 0
n_req = 8038
total_req = 10075

Dual Bus Interface Util:
issued_total_row = 638
issued_total_col = 10075
Row_Bus_Util =  0.020311
CoL_Bus_Util = 0.320747
Either_Row_CoL_Bus_Util = 0.324313
Issued_on_Two_Bus_Simul_Util = 0.016746
issued_two_Eff = 0.051634
queue_avg = 14.802330


dram_util_bins: 0 0 0 0 0 0 0 0 0 0
dram_eff_bins: 0 0 0 0 0 0 0 0 0 0
mrqq: max=64 avg=14.8023
Memory Partition 29:
Cache L2_bank_058:
MSHR contents

Cache L2_bank_059:
MSHR contents

In Dram Latency Queue (total = 0):
DRAM[29]: 16 bks, busW=16 BL=2 CL=12, tRRD=3 tCCD=1, tRCD=12 tRAS=28 tRP=12 tRC=40
n_cmd=31411 n_nop=21210 n_act=321 n_pre=305 n_ref_event=0 n_req=8049 n_rd=7372 n_rd_L2_A=0 n_write=0 n_wr_bk=2708 bw_util=0.3209
n_activity=12141 dram_eff=0.8302
bk0: 504a 26534i bk1: 512a 26482i bk2: 512a 28058i bk3: 512a 26784i bk4: 448a 27428i bk5: 448a 26727i bk6: 448a 27232i bk7: 448a 26722i bk8: 384a 28029i bk9: 384a 27504i bk10: 400a 28137i bk11: 412a 28362i bk12: 472a 27287i bk13: 464a 26675i bk14: 512a 27063i bk15: 512a 27102i

------------------------------------------------------------------------

Row_Buffer_Locality = 0.960119
Row_Buffer_Locality_read = 0.974091
Row_Buffer_Locality_write = 0.807976
Bank_Level_Parallism = 6.346822
Bank_Level_Parallism_Col = 5.955852
Bank_Level_Parallism_Ready = 2.643155
write_to_read_ratio_blp_rw_average = 0.361448
GrpLevelPara = 3.039300

BW Util details:
bwutil = 0.320907
total_CMD = 31411
util_bw = 10080
Wasted_Col = 1487
Wasted_Row = 171
Idle = 19673

BW Util Bottlenecks:
RCDc_limit = 485
RCDWRc_limit = 208
WTRc_limit = 1245
RTWc_limit = 4432
CCDLc_limit = 1966
rwq = 0
CCDLc_limit_alone = 1269
WTRc_limit_alone = 1071
RTWc_limit_alone = 3909

Commands details:
total_CMD = 31411
n_nop = 21210
Read = 7372
Write = 0
L2_Alloc = 0
L2_WB = 2708
n_act = 321
n_pre = 305
n_ref = 0
n_req = 8049
total_req = 10080

Dual Bus Interface Util:
issued_total_row = 626
issued_total_col = 10080
Row_Bus_Util =  0.019929
CoL_Bus_Util = 0.320907
Either_Row_CoL_Bus_Util = 0.324759
Issued_on_Two_Bus_Simul_Util = 0.016077
issued_two_Eff = 0.049505
queue_avg = 14.922480


dram_util_bins: 0 0 0 0 0 0 0 0 0 0
dram_eff_bins: 0 0 0 0 0 0 0 0 0 0
mrqq: max=64 avg=14.9225
Memory Partition 30:
Cache L2_bank_060:
MSHR contents

Cache L2_bank_061:
MSHR contents

In Dram Latency Queue (total = 0):
DRAM[30]: 16 bks, busW=16 BL=2 CL=12, tRRD=3 tCCD=1, tRCD=12 tRAS=28 tRP=12 tRC=40
n_cmd=31411 n_nop=21221 n_act=328 n_pre=312 n_ref_event=0 n_req=8041 n_rd=7364 n_rd_L2_A=0 n_write=0 n_wr_bk=2708 bw_util=0.3207
n_activity=12014 dram_eff=0.8384
bk0: 512a 27652i bk1: 512a 27213i bk2: 512a 26926i bk3: 512a 27373i bk4: 448a 26968i bk5: 448a 27522i bk6: 448a 27666i bk7: 448a 27201i bk8: 384a 27470i bk9: 384a 27045i bk10: 400a 28189i bk11: 408a 28097i bk12: 464a 26925i bk13: 460a 26894i bk14: 512a 27686i bk15: 512a 26670i

------------------------------------------------------------------------

Row_Buffer_Locality = 0.959209
Row_Buffer_Locality_read = 0.973520
Row_Buffer_Locality_write = 0.803545
Bank_Level_Parallism = 6.252244
Bank_Level_Parallism_Col = 5.878314
Bank_Level_Parallism_Ready = 2.673153
write_to_read_ratio_blp_rw_average = 0.368644
GrpLevelPara = 2.995028

BW Util details:
bwutil = 0.320652
total_CMD = 31411
util_bw = 10072
Wasted_Col = 1412
Wasted_Row = 211
Idle = 19716

BW Util Bottlenecks:
RCDc_limit = 497
RCDWRc_limit = 171
WTRc_limit = 951
RTWc_limit = 4024
CCDLc_limit = 1618
rwq = 0
CCDLc_limit_alone = 1024
WTRc_limit_alone = 822
RTWc_limit_alone = 3559

Commands details:
total_CMD = 31411
n_nop = 21221
Read = 7364
Write = 0
L2_Alloc = 0
L2_WB = 2708
n_act = 328
n_pre = 312
n_ref = 0
n_req = 8041
total_req = 10072

Dual Bus Interface Util:
issued_total_row = 640
issued_total_col = 10072
Row_Bus_Util =  0.020375
CoL_Bus_Util = 0.320652
Either_Row_CoL_Bus_Util = 0.324409
Issued_on_Two_Bus_Simul_Util = 0.016618
issued_two_Eff = 0.051227
queue_avg = 14.394257


dram_util_bins: 0 0 0 0 0 0 0 0 0 0
dram_eff_bins: 0 0 0 0 0 0 0 0 0 0
mrqq: max=64 avg=14.3943
Memory Partition 31:
Cache L2_bank_062:
MSHR contents

Cache L2_bank_063:
MSHR contents

In Dram Latency Queue (total = 0):
DRAM[31]: 16 bks, busW=16 BL=2 CL=12, tRRD=3 tCCD=1, tRCD=12 tRAS=28 tRP=12 tRC=40
n_cmd=31411 n_nop=21200 n_act=341 n_pre=325 n_ref_event=0 n_req=8062 n_rd=7384 n_rd_L2_A=0 n_write=0 n_wr_bk=2712 bw_util=0.3214
n_activity=12104 dram_eff=0.8341
bk0: 512a 27233i bk1: 512a 27001i bk2: 512a 27689i bk3: 512a 27580i bk4: 448a 26849i bk5: 448a 27454i bk6: 448a 27240i bk7: 448a 27378i bk8: 384a 27729i bk9: 384a 27889i bk10: 404a 28153i bk11: 416a 28274i bk12: 468a 26548i bk13: 464a 27123i bk14: 512a 26466i bk15: 512a 26170i

------------------------------------------------------------------------

Row_Buffer_Locality = 0.957703
Row_Buffer_Locality_read = 0.972508
Row_Buffer_Locality_write = 0.796460
Bank_Level_Parallism = 6.334648
Bank_Level_Parallism_Col = 5.914086
Bank_Level_Parallism_Ready = 2.604992
write_to_read_ratio_blp_rw_average = 0.363820
GrpLevelPara = 3.077453

BW Util details:
bwutil = 0.321416
total_CMD = 31411
util_bw = 10096
Wasted_Col = 1387
Wasted_Row = 177
Idle = 19751

BW Util Bottlenecks:
RCDc_limit = 504
RCDWRc_limit = 218
WTRc_limit = 1065
RTWc_limit = 4859
CCDLc_limit = 1741
rwq = 0
CCDLc_limit_alone = 1040
WTRc_limit_alone = 935
RTWc_limit_alone = 4288

Commands details:
total_CMD = 31411
n_nop = 21200
Read = 7384
Write = 0
L2_Alloc = 0
L2_WB = 2712
n_act = 341
n_pre = 325
n_ref = 0
n_req = 8062
total_req = 10096

Dual Bus Interface Util:
issued_total_row = 666
issued_total_col = 10096
Row_Bus_Util =  0.021203
CoL_Bus_Util = 0.321416
Either_Row_CoL_Bus_Util = 0.325077
Issued_on_Two_Bus_Simul_Util = 0.017542
issued_two_Eff = 0.053961
queue_avg = 15.191271


dram_util_bins: 0 0 0 0 0 0 0 0 0 0
dram_eff_bins: 0 0 0 0 0 0 0 0 0 0
mrqq: max=64 avg=15.1913

========= L2 cache stats =========
L2_cache_bank[0]: Access = 15278, Miss = 3796, Miss_rate = 0.248, Pending_hits = 136, Reservation_fails = 0
L2_cache_bank[1]: Access = 15310, Miss = 3804, Miss_rate = 0.248, Pending_hits = 127, Reservation_fails = 0
L2_cache_bank[2]: Access = 15291, Miss = 3800, Miss_rate = 0.249, Pending_hits = 142, Reservation_fails = 0
L2_cache_bank[3]: Access = 15306, Miss = 3808, Miss_rate = 0.249, Pending_hits = 148, Reservation_fails = 0
L2_cache_bank[4]: Access = 15289, Miss = 3812, Miss_rate = 0.249, Pending_hits = 137, Reservation_fails = 0
L2_cache_bank[5]: Access = 15275, Miss = 3808, Miss_rate = 0.249, Pending_hits = 129, Reservation_fails = 0
L2_cache_bank[6]: Access = 15281, Miss = 3808, Miss_rate = 0.249, Pending_hits = 147, Reservation_fails = 0
L2_cache_bank[7]: Access = 15317, Miss = 3792, Miss_rate = 0.248, Pending_hits = 137, Reservation_fails = 0
L2_cache_bank[8]: Access = 15297, Miss = 3812, Miss_rate = 0.249, Pending_hits = 130, Reservation_fails = 0
L2_cache_bank[9]: Access = 15304, Miss = 3812, Miss_rate = 0.249, Pending_hits = 143, Reservation_fails = 0
L2_cache_bank[10]: Access = 15323, Miss = 3832, Miss_rate = 0.250, Pending_hits = 148, Reservation_fails = 0
L2_cache_bank[11]: Access = 15265, Miss = 3804, Miss_rate = 0.249, Pending_hits = 128, Reservation_fails = 0
L2_cache_bank[12]: Access = 15301, Miss = 3804, Miss_rate = 0.249, Pending_hits = 139, Reservation_fails = 0
L2_cache_bank[13]: Access = 15286, Miss = 3800, Miss_rate = 0.249, Pending_hits = 139, Reservation_fails = 0
L2_cache_bank[14]: Access = 15280, Miss = 3800, Miss_rate = 0.249, Pending_hits = 133, Reservation_fails = 0
L2_cache_bank[15]: Access = 15290, Miss = 3812, Miss_rate = 0.249, Pending_hits = 142, Reservation_fails = 0
L2_cache_bank[16]: Access = 15293, Miss = 3792, Miss_rate = 0.248, Pending_hits = 147, Reservation_fails = 0
L2_cache_bank[17]: Access = 15305, Miss = 3812, Miss_rate = 0.249, Pending_hits = 132, Reservation_fails = 0
L2_cache_bank[18]: Access = 15272, Miss = 3796, Miss_rate = 0.249, Pending_hits = 138, Reservation_fails = 0
L2_cache_bank[19]: Access = 15291, Miss = 3820, Miss_rate = 0.250, Pending_hits = 142, Reservation_fails = 0
L2_cache_bank[20]: Access = 15277, Miss = 3800, Miss_rate = 0.249, Pending_hits = 140, Reservation_fails = 0
L2_cache_bank[21]: Access = 15322, Miss = 3796, Miss_rate = 0.248, Pending_hits = 156, Reservation_fails = 0
L2_cache_bank[22]: Access = 15296, Miss = 3808, Miss_rate = 0.249, Pending_hits = 143, Reservation_fails = 0
L2_cache_bank[23]: Access = 15296, Miss = 3792, Miss_rate = 0.248, Pending_hits = 142, Reservation_fails = 0
L2_cache_bank[24]: Access = 15302, Miss = 3792, Miss_rate = 0.248, Pending_hits = 145, Reservation_fails = 0
L2_cache_bank[25]: Access = 15281, Miss = 3764, Miss_rate = 0.246, Pending_hits = 139, Reservation_fails = 0
L2_cache_bank[26]: Access = 15289, Miss = 3800, Miss_rate = 0.249, Pending_hits = 129, Reservation_fails = 0
L2_cache_bank[27]: Access = 15322, Miss = 3780, Miss_rate = 0.247, Pending_hits = 141, Reservation_fails = 0
L2_cache_bank[28]: Access = 15302, Miss = 3784, Miss_rate = 0.247, Pending_hits = 139, Reservation_fails = 0
L2_cache_bank[29]: Access = 15498, Miss = 3799, Miss_rate = 0.245, Pending_hits = 150, Reservation_fails = 381
L2_cache_bank[30]: Access = 15302, Miss = 3804, Miss_rate = 0.249, Pending_hits = 155, Reservation_fails = 0
L2_cache_bank[31]: Access = 15287, Miss = 3796, Miss_rate = 0.248, Pending_hits = 135, Reservation_fails = 0
L2_cache_bank[32]: Access = 15300, Miss = 3824, Miss_rate = 0.250, Pending_hits = 139, Reservation_fails = 0
L2_cache_bank[33]: Access = 15292, Miss = 3828, Miss_rate = 0.250, Pending_hits = 151, Reservation_fails = 0
L2_cache_bank[34]: Access = 15295, Miss = 3800, Miss_rate = 0.248, Pending_hits = 138, Reservation_fails = 0
L2_cache_bank[35]: Access = 15277, Miss = 3820, Miss_rate = 0.250, Pending_hits = 140, Reservation_fails = 0
L2_cache_bank[36]: Access = 15302, Miss = 3804, Miss_rate = 0.249, Pending_hits = 141, Reservation_fails = 0
L2_cache_bank[37]: Access = 15291, Miss = 3832, Miss_rate = 0.251, Pending_hits = 143, Reservation_fails = 0
L2_cache_bank[38]: Access = 15310, Miss = 3784, Miss_rate = 0.247, Pending_hits = 144, Reservation_fails = 0
L2_cache_bank[39]: Access = 15268, Miss = 3832, Miss_rate = 0.251, Pending_hits = 131, Reservation_fails = 0
L2_cache_bank[40]: Access = 15281, Miss = 3808, Miss_rate = 0.249, Pending_hits = 132, Reservation_fails = 0
L2_cache_bank[41]: Access = 15285, Miss = 3844, Miss_rate = 0.251, Pending_hits = 139, Reservation_fails = 0
L2_cache_bank[42]: Access = 15283, Miss = 3832, Miss_rate = 0.251, Pending_hits = 145, Reservation_fails = 0
L2_cache_bank[43]: Access = 15299, Miss = 3856, Miss_rate = 0.252, Pending_hits = 129, Reservation_fails = 0
L2_cache_bank[44]: Access = 15238, Miss = 3801, Miss_rate = 0.249, Pending_hits = 133, Reservation_fails = 0
L2_cache_bank[45]: Access = 15304, Miss = 3816, Miss_rate = 0.249, Pending_hits = 142, Reservation_fails = 0
L2_cache_bank[46]: Access = 15245, Miss = 3780, Miss_rate = 0.248, Pending_hits = 136, Reservation_fails = 0
L2_cache_bank[47]: Access = 15305, Miss = 3831, Miss_rate = 0.250, Pending_hits = 140, Reservation_fails = 0
L2_cache_bank[48]: Access = 15297, Miss = 3800, Miss_rate = 0.248, Pending_hits = 144, Reservation_fails = 0
L2_cache_bank[49]: Access = 15301, Miss = 3812, Miss_rate = 0.249, Pending_hits = 140, Reservation_fails = 0
L2_cache_bank[50]: Access = 15299, Miss = 3800, Miss_rate = 0.248, Pending_hits = 136, Reservation_fails = 0
L2_cache_bank[51]: Access = 15318, Miss = 3804, Miss_rate = 0.248, Pending_hits = 136, Reservation_fails = 0
L2_cache_bank[52]: Access = 15303, Miss = 3820, Miss_rate = 0.250, Pending_hits = 129, Reservation_fails = 0
L2_cache_bank[53]: Access = 15276, Miss = 3804, Miss_rate = 0.249, Pending_hits = 143, Reservation_fails = 0
L2_cache_bank[54]: Access = 15294, Miss = 3792, Miss_rate = 0.248, Pending_hits = 148, Reservation_fails = 0
L2_cache_bank[55]: Access = 15314, Miss = 3816, Miss_rate = 0.249, Pending_hits = 129, Reservation_fails = 0
L2_cache_bank[56]: Access = 15271, Miss = 3808, Miss_rate = 0.249, Pending_hits = 137, Reservation_fails = 0
L2_cache_bank[57]: Access = 15324, Miss = 3807, Miss_rate = 0.248, Pending_hits = 145, Reservation_fails = 0
L2_cache_bank[58]: Access = 15297, Miss = 3816, Miss_rate = 0.249, Pending_hits = 142, Reservation_fails = 0
L2_cache_bank[59]: Access = 15280, Miss = 3812, Miss_rate = 0.249, Pending_hits = 144, Reservation_fails = 0
L2_cache_bank[60]: Access = 15297, Miss = 3820, Miss_rate = 0.250, Pending_hits = 151, Reservation_fails = 0
L2_cache_bank[61]: Access = 15296, Miss = 3800, Miss_rate = 0.248, Pending_hits = 134, Reservation_fails = 0
L2_cache_bank[62]: Access = 15283, Miss = 3828, Miss_rate = 0.250, Pending_hits = 152, Reservation_fails = 0
L2_cache_bank[63]: Access = 15289, Miss = 3812, Miss_rate = 0.249, Pending_hits = 135, Reservation_fails = 0
L2_total_cache_accesses = 978942
L2_total_cache_misses = 243682
L2_total_cache_miss_rate = 0.2489
L2_total_cache_pending_hits = 8946
L2_total_cache_reservation_fails = 381
L2_total_cache_breakdown:
        L2_cache_stats_breakdown[GLOBAL_ACC_R][HIT] = 54708
        L2_cache_stats_breakdown[GLOBAL_ACC_R][HIT_RESERVED] = 8946
        L2_cache_stats_breakdown[GLOBAL_ACC_R][MISS] = 58874
        L2_cache_stats_breakdown[GLOBAL_ACC_R][RESERVATION_FAIL] = 381
        L2_cache_stats_breakdown[GLOBAL_ACC_R][SECTOR_MISS] = 176616
        L2_cache_stats_breakdown[GLOBAL_ACC_R][MSHR_HIT] = 8946
        L2_cache_stats_breakdown[LOCAL_ACC_R][HIT] = 0
        L2_cache_stats_breakdown[LOCAL_ACC_R][HIT_RESERVED] = 0
        L2_cache_stats_breakdown[LOCAL_ACC_R][MISS] = 0
        L2_cache_stats_breakdown[LOCAL_ACC_R][RESERVATION_FAIL] = 0
        L2_cache_stats_breakdown[LOCAL_ACC_R][SECTOR_MISS] = 0
        L2_cache_stats_breakdown[LOCAL_ACC_R][MSHR_HIT] = 0
        L2_cache_stats_breakdown[CONST_ACC_R][HIT] = 0
        L2_cache_stats_breakdown[CONST_ACC_R][HIT_RESERVED] = 0
        L2_cache_stats_breakdown[CONST_ACC_R][MISS] = 0
        L2_cache_stats_breakdown[CONST_ACC_R][RESERVATION_FAIL] = 0
        L2_cache_stats_breakdown[CONST_ACC_R][SECTOR_MISS] = 0
        L2_cache_stats_breakdown[CONST_ACC_R][MSHR_HIT] = 0
        L2_cache_stats_breakdown[TEXTURE_ACC_R][HIT] = 0
        L2_cache_stats_breakdown[TEXTURE_ACC_R][HIT_RESERVED] = 0
        L2_cache_stats_breakdown[TEXTURE_ACC_R][MISS] = 0
        L2_cache_stats_breakdown[TEXTURE_ACC_R][RESERVATION_FAIL] = 0
        L2_cache_stats_breakdown[TEXTURE_ACC_R][SECTOR_MISS] = 0
        L2_cache_stats_breakdown[TEXTURE_ACC_R][MSHR_HIT] = 0
        L2_cache_stats_breakdown[GLOBAL_ACC_W][HIT] = 327686
        L2_cache_stats_breakdown[GLOBAL_ACC_W][HIT_RESERVED] = 0
        L2_cache_stats_breakdown[GLOBAL_ACC_W][MISS] = 0
        L2_cache_stats_breakdown[GLOBAL_ACC_W][RESERVATION_FAIL] = 0
        L2_cache_stats_breakdown[GLOBAL_ACC_W][SECTOR_MISS] = 0
        L2_cache_stats_breakdown[GLOBAL_ACC_W][MSHR_HIT] = 0
        L2_cache_stats_breakdown[LOCAL_ACC_W][HIT] = 0
        L2_cache_stats_breakdown[LOCAL_ACC_W][HIT_RESERVED] = 0
        L2_cache_stats_breakdown[LOCAL_ACC_W][MISS] = 0
        L2_cache_stats_breakdown[LOCAL_ACC_W][RESERVATION_FAIL] = 0
        L2_cache_stats_breakdown[LOCAL_ACC_W][SECTOR_MISS] = 0
        L2_cache_stats_breakdown[LOCAL_ACC_W][MSHR_HIT] = 0
        L2_cache_stats_breakdown[L1_WRBK_ACC][HIT] = 0
        L2_cache_stats_breakdown[L1_WRBK_ACC][HIT_RESERVED] = 0
        L2_cache_stats_breakdown[L1_WRBK_ACC][MISS] = 0
        L2_cache_stats_breakdown[L1_WRBK_ACC][RESERVATION_FAIL] = 0
        L2_cache_stats_breakdown[L1_WRBK_ACC][SECTOR_MISS] = 0
        L2_cache_stats_breakdown[L1_WRBK_ACC][MSHR_HIT] = 0
        L2_cache_stats_breakdown[L2_WRBK_ACC][HIT] = 0
        L2_cache_stats_breakdown[L2_WRBK_ACC][HIT_RESERVED] = 0
        L2_cache_stats_breakdown[L2_WRBK_ACC][MISS] = 0
        L2_cache_stats_breakdown[L2_WRBK_ACC][RESERVATION_FAIL] = 0
        L2_cache_stats_breakdown[L2_WRBK_ACC][SECTOR_MISS] = 0
        L2_cache_stats_breakdown[L2_WRBK_ACC][MSHR_HIT] = 0
        L2_cache_stats_breakdown[INST_ACC_R][HIT] = 0
        L2_cache_stats_breakdown[INST_ACC_R][HIT_RESERVED] = 0
        L2_cache_stats_breakdown[INST_ACC_R][MISS] = 0
        L2_cache_stats_breakdown[INST_ACC_R][RESERVATION_FAIL] = 0
        L2_cache_stats_breakdown[INST_ACC_R][SECTOR_MISS] = 0
        L2_cache_stats_breakdown[INST_ACC_R][MSHR_HIT] = 0
        L2_cache_stats_breakdown[L1_WR_ALLOC_R][HIT] = 0
        L2_cache_stats_breakdown[L1_WR_ALLOC_R][HIT_RESERVED] = 0
        L2_cache_stats_breakdown[L1_WR_ALLOC_R][MISS] = 0
        L2_cache_stats_breakdown[L1_WR_ALLOC_R][RESERVATION_FAIL] = 0
        L2_cache_stats_breakdown[L1_WR_ALLOC_R][SECTOR_MISS] = 0
        L2_cache_stats_breakdown[L1_WR_ALLOC_R][MSHR_HIT] = 0
        L2_cache_stats_breakdown[L2_WR_ALLOC_R][HIT] = 0
        L2_cache_stats_breakdown[L2_WR_ALLOC_R][HIT_RESERVED] = 0
        L2_cache_stats_breakdown[L2_WR_ALLOC_R][MISS] = 0
        L2_cache_stats_breakdown[L2_WR_ALLOC_R][RESERVATION_FAIL] = 0
        L2_cache_stats_breakdown[L2_WR_ALLOC_R][SECTOR_MISS] = 0
        L2_cache_stats_breakdown[L2_WR_ALLOC_R][MSHR_HIT] = 0
        L2_cache_stats_breakdown[GLOBAL_ACC_R][TOTAL_ACCESS] = 299144
        L2_cache_stats_breakdown[GLOBAL_ACC_W][TOTAL_ACCESS] = 327686
L2_total_cache_reservation_fail_breakdown:
        L2_cache_stats_fail_breakdown[GLOBAL_ACC_R][MSHR_MERGE_ENRTY_FAIL] = 381
L2_cache_data_port_util = 0.212
L2_cache_fill_port_util = 0.069

icnt_total_pkts_mem_to_simt=978942
icnt_total_pkts_simt_to_mem=978942
LD_mem_lat_dist  0 0 0 0 0 0 0 0 0 0 0 0 0 0 0 0 0 0 0 0 0 0 0 0 0 0 0
ST_mem_lat_dist  0 0 0 0 0 0 0 0 0 0 0 0 0 0 0 0 0 0 0 0 0 0 0 0 0 0 0
----------------------------Interconnect-DETAILS--------------------------------
Req_Network_injected_packets_num = 978942
Req_Network_cycles = 53473
Req_Network_injected_packets_per_cycle =      18.3072
Req_Network_conflicts_per_cycle =      12.2125
Req_Network_conflicts_per_cycle_util =      16.3304
Req_Bank_Level_Parallism =      24.4803
Req_Network_in_buffer_full_per_cycle =       0.0000
Req_Network_in_buffer_avg_util =      14.5179
Req_Network_out_buffer_full_per_cycle =       0.0000
Req_Network_out_buffer_avg_util =       6.3974

Reply_Network_injected_packets_num = 978942
Reply_Network_cycles = 53473
Reply_Network_injected_packets_per_cycle =       18.3072
Reply_Network_conflicts_per_cycle =       11.2127
Reply_Network_conflicts_per_cycle_util =      15.0549
Reply_Bank_Level_Parallism =      24.5805
Reply_Network_in_buffer_full_per_cycle =       0.0000
Reply_Network_in_buffer_avg_util =       6.5687
Reply_Network_out_buffer_full_per_cycle =       0.0000
Reply_Network_out_buffer_avg_util =       0.2288
----------------------------END-of-Interconnect-DETAILS-------------------------


gpgpu_simulation_time = 0 days, 0 hrs, 5 min, 32 sec (332 sec)
gpgpu_simulation_rate = 405258 (inst/sec)
gpgpu_simulation_rate = 161 (cycle/sec)
gpgpu_silicon_slowdown = 8987577x
Training done
GPGPU-Sim: *** exit detected ***